<?xml version="1.0" encoding="UTF-8"?>

<!-- generated on 2024-03-11 18:05:07 by Eclipse SUMO netedit Version 1.16.0
<configuration xmlns:xsi="http://www.w3.org/2001/XMLSchema-instance" xsi:noNamespaceSchemaLocation="http://sumo.dlr.de/xsd/netconvertConfiguration.xsd">

    <input>
        <sumo-net-file value="C:\Users\SYS\Desktop\路径生成\ChongQing_test.net.xml"/>
    </input>

    <output>
        <output-file value="C:\Users\SYS\Desktop\路径生成\ChongQing_test.net.xml"/>
    </output>

    <processing>
        <geometry.min-radius.fix.railways value="false"/>
        <geometry.max-grade.fix value="false"/>
        <offset.disable-normalization value="true"/>
        <lefthand value="0"/>
    </processing>

    <junctions>
        <no-internal-links value="false"/>
        <no-turnarounds value="true"/>
        <junctions.corner-detail value="5"/>
        <junctions.limit-turn-speed value="-1.00"/>
        <rectangular-lane-cut value="0"/>
    </junctions>

    <pedestrian>
        <walkingareas value="0"/>
    </pedestrian>

</configuration>
-->

<net version="1.16" junctionCornerDetail="5" xmlns:xsi="http://www.w3.org/2001/XMLSchema-instance" xsi:noNamespaceSchemaLocation="http://sumo.dlr.de/xsd/net_file.xsd">

    <location netOffset="0.00,0.00" convBoundary="9115.70,19909.14,10834.75,21186.66" origBoundary="0.00,0.00,0.00,0.00" projParameter="!"/>

    <edge id=":2417_0" function="internal">
        <lane id=":2417_0_0" index="0" disallow="pedestrian" speed="16.67" length="46.35" width="3.50" shape="9520.06,20401.09 9513.86,20389.64 9505.81,20382.11 9495.90,20378.52 9484.14,20378.87"/>
    </edge>
    <edge id=":2417_1" function="internal">
        <lane id=":2417_1_0" index="0" disallow="pedestrian" speed="16.67" length="68.62" width="3.50" shape="9520.06,20401.09 9516.53,20388.05 9512.32,20367.68 9508.80,20347.18 9507.32,20333.75"/>
    </edge>
    <edge id=":2417_2" function="internal">
        <lane id=":2417_2_0" index="0" disallow="pedestrian" speed="16.67" length="58.78" width="3.50" shape="9520.06,20401.09 9516.17,20384.85 9519.18,20373.13 9528.98,20365.07 9545.45,20359.80"/>
    </edge>
    <edge id=":2417_3" function="internal">
        <lane id=":2417_3_0" index="0" disallow="pedestrian" speed="16.67" length="44.10" width="3.50" shape="9546.89,20366.65 9532.75,20371.40 9524.10,20378.51 9520.96,20387.98 9522.52,20395.83"/>
    </edge>
    <edge id=":2417_4" function="internal">
        <lane id=":2417_4_0" index="0" disallow="pedestrian" speed="16.67" length="63.93" width="3.50" shape="9546.89,20366.65 9484.14,20378.87"/>
    </edge>
    <edge id=":2417_5" function="internal">
        <lane id=":2417_5_0" index="0" disallow="pedestrian" speed="16.67" length="22.45" width="3.50" shape="9546.17,20363.22 9528.92,20364.79 9524.06,20363.17"/>
    </edge>
    <edge id=":2417_12" function="internal">
        <lane id=":2417_12_0" index="0" disallow="pedestrian" speed="16.67" length="4.06" width="3.50" shape="9522.52,20395.83 9523.32,20399.81"/>
    </edge>
    <edge id=":2417_13" function="internal">
        <lane id=":2417_13_0" index="0" disallow="pedestrian" speed="16.67" length="37.06" width="3.50" shape="9524.06,20363.17 9516.81,20360.74 9509.66,20350.57 9507.32,20333.75"/>
    </edge>
    <edge id=":2417_6" function="internal">
        <lane id=":2417_6_0" index="0" disallow="pedestrian" speed="16.67" length="48.95" width="3.50" shape="9510.82,20333.75 9512.94,20346.33 9519.30,20354.30 9529.89,20357.64 9544.73,20356.37"/>
    </edge>
    <edge id=":2417_7" function="internal">
        <lane id=":2417_7_0" index="0" disallow="pedestrian" speed="16.67" length="67.32" width="3.50" shape="9510.82,20333.75 9512.26,20346.98 9515.70,20367.04 9519.82,20386.97 9523.32,20399.81"/>
    </edge>
    <edge id=":2417_8" function="internal">
        <lane id=":2417_8_0" index="0" disallow="pedestrian" speed="16.67" length="54.63" width="3.50" shape="9510.82,20333.75 9509.11,20350.12 9503.99,20362.52 9495.46,20370.96 9483.51,20375.42"/>
    </edge>
    <edge id=":2417_9" function="internal">
        <lane id=":2417_9_0" index="0" disallow="pedestrian" speed="16.67" length="43.09" width="3.50" shape="9482.26,20368.53 9493.22,20364.65 9501.06,20357.56 9505.75,20347.26 9506.86,20337.75"/>
    </edge>
    <edge id=":2417_10" function="internal">
        <lane id=":2417_10_0" index="0" disallow="pedestrian" speed="16.67" length="63.64" width="3.50" shape="9482.26,20368.53 9544.73,20356.37"/>
    </edge>
    <edge id=":2417_11" function="internal">
        <lane id=":2417_11_0" index="0" disallow="pedestrian" speed="16.67" length="16.42" width="3.50" shape="9482.89,20371.98 9495.74,20371.84 9499.03,20373.21"/>
    </edge>
    <edge id=":2417_14" function="internal">
        <lane id=":2417_14_0" index="0" disallow="pedestrian" speed="16.67" length="4.03" width="3.50" shape="9506.86,20337.75 9507.32,20333.75"/>
    </edge>
    <edge id=":2417_15" function="internal">
        <lane id=":2417_15_0" index="0" disallow="pedestrian" speed="16.67" length="37.34" width="3.50" shape="9499.03,20373.21 9506.76,20376.43 9515.96,20385.76 9523.32,20399.81"/>
    </edge>
    <edge id=":2417_c0" function="crossing" crossingEdges="-7889 7889">
        <lane id=":2417_c0_0" index="0" allow="pedestrian" speed="2.78" length="7.00" width="4.00" shape="9524.22,20397.31 9517.70,20399.87"/>
    </edge>
    <edge id=":2417_c1" function="crossing" crossingEdges="-8327 8327">
        <lane id=":2417_c1_0" index="0" allow="pedestrian" speed="2.78" length="14.00" width="4.00" shape="9542.41,20355.07 9545.30,20368.77"/>
    </edge>
    <edge id=":2417_c2" function="crossing" crossingEdges="7022 -7022">
        <lane id=":2417_c2_0" index="0" allow="pedestrian" speed="2.78" length="7.00" width="4.00" shape="9505.57,20335.75 9512.57,20335.75"/>
    </edge>
    <edge id=":2417_c3" function="crossing" crossingEdges="-6996 6996">
        <lane id=":2417_c3_0" index="0" allow="pedestrian" speed="2.78" length="14.00" width="4.00" shape="9486.42,20380.23 9483.92,20366.46"/>
    </edge>
    <edge id=":2417_w0" function="walkingarea">
        <lane id=":2417_w0_0" index="0" allow="pedestrian" speed="2.78" length="25.88" width="4.00" shape="9484.45,20380.59 9484.99,20383.54 9515.64,20402.83 9518.43,20401.73 9514.71,20394.06 9510.21,20388.05 9504.93,20383.69 9498.88,20381.00 9492.05,20379.96"/>
    </edge>
    <edge id=":2417_w1" function="walkingarea">
        <lane id=":2417_w1_0" index="0" allow="pedestrian" speed="2.78" length="24.61" width="4.00" shape="9524.95,20399.17 9527.74,20398.07 9547.88,20371.29 9547.26,20368.36 9542.36,20370.70 9536.89,20375.32 9531.62,20381.35 9527.36,20387.91 9524.87,20394.14"/>
    </edge>
    <edge id=":2417_w2" function="walkingarea">
        <lane id=":2417_w2_0" index="0" allow="pedestrian" speed="2.78" length="24.62" width="4.00" shape="9544.36,20354.66 9543.74,20351.73 9515.57,20333.75 9512.57,20333.75 9514.32,20338.51 9518.88,20343.53 9525.21,20348.23 9532.26,20352.03 9538.99,20354.37"/>
    </edge>
    <edge id=":2417_w3" function="walkingarea">
        <lane id=":2417_w3_0" index="0" allow="pedestrian" speed="2.78" length="26.29" width="4.00" shape="9505.57,20333.75 9502.57,20333.75 9481.41,20363.86 9481.95,20366.81 9489.17,20364.70 9495.07,20361.23 9499.66,20356.40 9502.95,20350.21 9504.91,20342.66"/>
    </edge>
    <edge id=":2419_0" function="internal">
        <lane id=":2419_0_0" index="0" disallow="pedestrian" speed="16.67" length="48.70" width="3.50" shape="10365.98,20371.83 10355.69,20368.81 10346.00,20371.29 10336.92,20379.25 10328.44,20392.70"/>
    </edge>
    <edge id=":2419_1" function="internal">
        <lane id=":2419_1_0" index="0" disallow="pedestrian" speed="16.67" length="70.50" width="3.50" shape="10367.65,20368.75 10352.38,20362.40 10334.51,20357.22 10316.43,20352.48 10300.53,20347.48"/>
    </edge>
    <edge id=":2419_2" function="internal">
        <lane id=":2419_2_0" index="0" disallow="pedestrian" speed="16.67" length="52.59" width="3.00" shape="10369.32,20365.68 10355.54,20356.29 10347.46,20346.20 10345.07,20335.42 10348.38,20323.95"/>
    </edge>
    <edge id=":2419_3" function="internal">
        <lane id=":2419_3_0" index="0" disallow="pedestrian" speed="16.67" length="33.26" width="3.50" shape="10359.02,20329.49 10356.43,20337.98 10357.84,20345.81 10363.25,20353.00 10369.36,20357.23"/>
    </edge>
    <edge id=":2419_4" function="internal">
        <lane id=":2419_4_0" index="0" disallow="pedestrian" speed="16.67" length="70.27" width="3.50" shape="10356.36,20328.11 10325.32,20391.13"/>
        <lane id=":2419_4_1" index="1" disallow="pedestrian" speed="16.67" length="70.27" width="3.50" shape="10353.70,20326.72 10322.19,20389.55"/>
    </edge>
    <edge id=":2419_6" function="internal">
        <lane id=":2419_6_0" index="0" disallow="pedestrian" speed="16.67" length="17.22" width="3.50" shape="10351.04,20325.33 10341.81,20338.31 10340.73,20339.03"/>
    </edge>
    <edge id=":2419_14" function="internal">
        <lane id=":2419_14_0" index="0" disallow="pedestrian" speed="16.67" length="4.02" width="3.50" shape="10369.36,20357.23 10372.67,20359.53"/>
    </edge>
    <edge id=":2419_15" function="internal">
        <lane id=":2419_15_0" index="0" disallow="pedestrian" speed="16.67" length="41.53" width="3.50" shape="10340.73,20339.03 10330.53,20345.78 10317.19,20347.75 10301.78,20344.21"/>
    </edge>
    <edge id=":2419_7" function="internal">
        <lane id=":2419_7_0" index="0" disallow="pedestrian" speed="16.67" length="44.30" width="3.00" shape="10305.54,20334.41 10317.46,20337.25 10327.68,20335.99 10336.22,20330.63 10343.06,20321.17"/>
    </edge>
    <edge id=":2419_8" function="internal">
        <lane id=":2419_8_0" index="0" disallow="pedestrian" speed="16.67" length="71.48" width="3.50" shape="10305.54,20334.41 10322.05,20340.34 10341.17,20346.96 10359.25,20353.59 10372.67,20359.53"/>
        <lane id=":2419_8_1" index="1" disallow="pedestrian" speed="16.67" length="71.48" width="3.50" shape="10304.29,20337.68 10320.74,20343.58 10339.70,20350.13 10357.64,20356.69 10371.00,20362.60"/>
    </edge>
    <edge id=":2419_10" function="internal">
        <lane id=":2419_10_0" index="0" disallow="pedestrian" speed="16.67" length="62.73" width="3.50" shape="10303.04,20340.95 10319.30,20349.27 10327.68,20359.42 10328.53,20372.48 10322.19,20389.55"/>
    </edge>
    <edge id=":2419_11" function="internal">
        <lane id=":2419_11_0" index="0" disallow="pedestrian" speed="16.67" length="38.80" width="3.50" shape="10312.82,20384.82 10316.56,20373.61 10315.55,20364.20 10309.79,20356.58 10302.82,20352.71"/>
    </edge>
    <edge id=":2419_12" function="internal">
        <lane id=":2419_12_0" index="0" disallow="pedestrian" speed="16.67" length="70.44" width="3.00" shape="10315.94,20386.39 10345.72,20322.56"/>
    </edge>
    <edge id=":2419_13" function="internal">
        <lane id=":2419_13_0" index="0" disallow="pedestrian" speed="16.67" length="7.89" width="3.50" shape="10319.07,20387.97 10323.35,20381.34"/>
    </edge>
    <edge id=":2419_16" function="internal">
        <lane id=":2419_16_0" index="0" disallow="pedestrian" speed="16.67" length="4.04" width="3.50" shape="10302.82,20352.71 10299.28,20350.75"/>
    </edge>
    <edge id=":2419_17" function="internal">
        <lane id=":2419_17_0" index="0" disallow="pedestrian" speed="16.67" length="58.01" width="3.50" shape="10323.35,20381.34 10330.28,20370.61 10342.67,20360.60 10356.24,20357.93 10371.00,20362.60"/>
    </edge>
    <edge id=":2419_c0" function="crossing" crossingEdges="-8272 8272">
        <lane id=":2419_c0_0" index="0" allow="pedestrian" speed="2.78" length="17.50" width="4.00" shape="10371.75,20357.03 10363.39,20372.41"/>
    </edge>
    <edge id=":2419_c1" function="crossing" crossingEdges="-8267 8267">
        <lane id=":2419_c1_0" index="0" allow="pedestrian" speed="2.78" length="21.00" width="4.00" shape="10340.80,20322.25 10359.43,20331.96"/>
    </edge>
    <edge id=":2419_c2" function="crossing" crossingEdges="8330 -8330">
        <lane id=":2419_c2_0" index="0" allow="pedestrian" speed="2.78" length="21.00" width="4.00" shape="10300.52,20353.10 10308.03,20333.49"/>
    </edge>
    <edge id=":2419_c3" function="crossing" crossingEdges="-7499 7499">
        <lane id=":2419_c3_0" index="0" allow="pedestrian" speed="2.78" length="21.00" width="4.00" shape="10330.90,20391.71 10312.16,20382.24"/>
    </edge>
    <edge id=":2419_w0" function="walkingarea">
        <lane id=":2419_w0_0" index="0" allow="pedestrian" speed="2.78" length="26.25" width="4.00" shape="10330.00,20393.49 10332.68,20394.85 10363.71,20376.00 10365.14,20373.36 10360.58,20373.09 10354.06,20375.26 10346.66,20379.14 10339.46,20383.97 10333.55,20389.00"/>
    </edge>
    <edge id=":2419_w1" function="walkingarea">
        <lane id=":2419_w1_0" index="0" allow="pedestrian" speed="2.78" length="19.74" width="4.00" shape="10373.50,20357.99 10374.94,20355.35 10363.01,20331.57 10360.35,20330.19 10358.39,20335.43 10358.09,20340.43 10359.45,20345.18 10362.47,20349.70 10367.16,20353.96"/>
    </edge>
    <edge id=":2419_w2" function="walkingarea">
        <lane id=":2419_w2_0" index="0" allow="pedestrian" speed="2.78" length="24.29" width="4.00" shape="10341.73,20320.48 10339.07,20319.09 10307.24,20329.97 10306.16,20332.77 10313.90,20335.02 10320.92,20335.54 10327.21,20334.35 10332.78,20331.45 10337.61,20326.82"/>
    </edge>
    <edge id=":2419_w3" function="walkingarea">
        <lane id=":2419_w3_0" index="0" allow="pedestrian" speed="2.78" length="21.94" width="4.00" shape="10298.66,20352.39 10297.58,20355.19 10308.58,20382.67 10311.26,20384.03 10312.29,20379.15 10311.62,20373.00 10309.57,20366.42 10306.50,20360.24 10302.75,20355.28"/>
    </edge>
    <edge id=":2420_0" function="internal">
        <lane id=":2420_0_0" index="0" disallow="pedestrian" speed="16.67" length="46.43" width="3.50" shape="10745.95,20568.48 10738.78,20579.99 10732.25,20589.43 10726.51,20598.21 10721.72,20607.75"/>
        <lane id=":2420_0_1" index="1" disallow="pedestrian" speed="16.67" length="46.43" width="3.50" shape="10742.91,20566.74 10735.71,20578.32 10729.11,20587.89 10723.31,20596.81 10718.48,20606.42"/>
    </edge>
    <edge id=":2420_2" function="internal">
        <lane id=":2420_2_0" index="0" disallow="pedestrian" speed="16.67" length="4.31" width="3.50" shape="10739.87,20565.01 10737.03,20568.25"/>
    </edge>
    <edge id=":2420_9" function="internal">
        <lane id=":2420_9_0" index="0" disallow="pedestrian" speed="16.67" length="46.19" width="3.50" shape="10737.03,20568.25 10732.22,20573.75 10722.34,20577.09 10710.23,20575.02 10695.90,20567.54"/>
    </edge>
    <edge id=":2420_3" function="internal">
        <lane id=":2420_3_0" index="0" disallow="pedestrian" speed="16.67" length="35.62" width="3.50" shape="10699.75,20561.70 10709.84,20566.95 10718.37,20568.39 10725.34,20566.01 10730.75,20559.80"/>
        <lane id=":2420_3_1" index="1" disallow="pedestrian" speed="16.67" length="41.51" width="3.50" shape="10697.82,20564.62 10709.39,20570.57 10719.24,20572.04 10727.38,20569.03 10733.79,20561.54"/>
    </edge>
    <edge id=":2420_5" function="internal">
        <lane id=":2420_5_0" index="0" disallow="pedestrian" speed="16.67" length="50.84" width="3.50" shape="10697.82,20564.62 10710.28,20574.59 10717.87,20584.88 10720.60,20595.49 10718.48,20606.42"/>
    </edge>
    <edge id=":2420_6" function="internal">
        <lane id=":2420_6_0" index="0" disallow="pedestrian" speed="16.67" length="37.12" width="3.50" shape="10712.00,20603.77 10713.47,20595.36 10710.95,20587.01 10704.45,20578.71 10697.13,20572.95"/>
    </edge>
    <edge id=":2420_7" function="internal">
        <lane id=":2420_7_0" index="0" disallow="pedestrian" speed="16.67" length="47.33" width="3.50" shape="10712.00,20603.77 10716.42,20593.76 10721.32,20583.96 10727.00,20573.51 10733.79,20561.54"/>
        <lane id=":2420_7_1" index="1" disallow="pedestrian" speed="16.67" length="47.33" width="3.50" shape="10715.24,20605.10 10719.62,20595.15 10724.45,20585.49 10730.08,20575.18 10736.83,20563.27"/>
    </edge>
    <edge id=":2420_10" function="internal">
        <lane id=":2420_10_0" index="0" disallow="pedestrian" speed="16.67" length="4.01" width="3.50" shape="10697.13,20572.95 10693.97,20570.46"/>
    </edge>
    <edge id=":2420_c0" function="crossing" crossingEdges="8271 -8271">
        <lane id=":2420_c0_0" index="0" allow="pedestrian" speed="2.78" length="14.00" width="4.00" shape="10694.68,20573.03 10702.38,20561.34"/>
    </edge>
    <edge id=":2420_w0" function="walkingarea">
        <lane id=":2420_w0_0" index="0" allow="pedestrian" speed="2.78" length="45.73" width="3.00" shape="10723.34,20608.42 10726.11,20609.56 10750.07,20570.83 10747.47,20569.35 10742.33,20577.69 10738.09,20583.62 10734.40,20588.39 10730.94,20593.28 10727.36,20599.53"/>
    </edge>
    <edge id=":2420_w1" function="walkingarea">
        <lane id=":2420_w1_0" index="0" allow="pedestrian" speed="2.78" length="18.21" width="4.00" shape="10729.23,20558.93 10726.63,20557.45 10702.36,20557.73 10700.71,20560.24 10707.11,20563.90 10712.85,20566.00 10717.93,20566.56 10722.36,20565.57 10726.12,20563.03"/>
    </edge>
    <edge id=":2420_w2" function="walkingarea">
        <lane id=":2420_w2_0" index="0" allow="pedestrian" speed="2.78" length="23.04" width="4.00" shape="10693.01,20571.92 10691.36,20574.43 10707.61,20601.96 10710.38,20603.10 10711.67,20597.92 10711.29,20592.74 10709.23,20587.55 10705.49,20582.35 10700.09,20577.14"/>
    </edge>
    <edge id=":2421_0" function="internal">
        <lane id=":2421_0_0" index="0" disallow="pedestrian" speed="16.67" length="30.10" width="3.50" shape="9505.49,19935.64 9504.21,19927.79 9500.57,19922.09 9494.60,19918.55 9486.27,19917.15"/>
    </edge>
    <edge id=":2421_1" function="internal">
        <lane id=":2421_1_0" index="0" disallow="pedestrian" speed="16.67" length="35.31" width="3.50" shape="9505.49,19935.64 9506.63,19925.20 9510.35,19917.84 9516.65,19913.58 9525.52,19912.40"/>
    </edge>
    <edge id=":2421_2" function="internal">
        <lane id=":2421_2_0" index="0" disallow="pedestrian" speed="16.67" length="22.45" width="3.50" shape="9525.27,19919.40 9518.07,19920.18 9512.95,19923.15 9509.93,19928.28 9509.50,19931.59"/>
    </edge>
    <edge id=":2421_3" function="internal">
        <lane id=":2421_3_0" index="0" disallow="pedestrian" speed="16.67" length="39.07" width="3.50" shape="9525.27,19919.40 9486.27,19917.15"/>
        <lane id=":2421_3_1" index="1" disallow="pedestrian" speed="16.67" length="39.07" width="3.50" shape="9525.40,19915.90 9486.39,19913.65"/>
    </edge>
    <edge id=":2421_8" function="internal">
        <lane id=":2421_8_0" index="0" disallow="pedestrian" speed="16.67" length="4.04" width="3.50" shape="9509.50,19931.59 9508.99,19935.60"/>
    </edge>
    <edge id=":2421_5" function="internal">
        <lane id=":2421_5_0" index="0" disallow="pedestrian" speed="16.67" length="39.08" width="3.50" shape="9486.63,19906.65 9525.65,19908.90"/>
        <lane id=":2421_5_1" index="1" disallow="pedestrian" speed="16.67" length="39.08" width="3.50" shape="9486.51,19910.15 9525.52,19912.40"/>
    </edge>
    <edge id=":2421_7" function="internal">
        <lane id=":2421_7_0" index="0" disallow="pedestrian" speed="16.67" length="6.47" width="3.50" shape="9486.51,19910.15 9492.86,19911.38"/>
    </edge>
    <edge id=":2421_9" function="internal">
        <lane id=":2421_9_0" index="0" disallow="pedestrian" speed="16.67" length="31.83" width="3.50" shape="9492.86,19911.38 9496.23,19912.02 9503.22,19916.89 9507.47,19924.75 9508.99,19935.60"/>
    </edge>
    <edge id=":2421_c0" function="crossing" crossingEdges="-7022 7022">
        <lane id=":2421_c0_0" index="0" allow="pedestrian" speed="2.78" length="7.00" width="4.00" shape="9510.71,19933.58 9503.72,19933.66"/>
    </edge>
    <edge id=":2421_c1" function="crossing" crossingEdges="-8306 8306">
        <lane id=":2421_c1_0" index="0" allow="pedestrian" speed="2.78" length="14.00" width="4.00" shape="9523.72,19907.08 9523.21,19921.07"/>
    </edge>
    <edge id=":2421_c2" function="crossing" crossingEdges="7025 -7025">
        <lane id=":2421_c2_0" index="0" allow="pedestrian" speed="2.78" length="14.00" width="4.00" shape="9488.21,19918.96 9488.69,19904.97"/>
    </edge>
    <edge id=":2421_w0" function="walkingarea">
        <lane id=":2421_w0_0" index="0" allow="pedestrian" speed="2.78" length="15.40" width="4.00" shape="9486.21,19918.90 9486.11,19921.89 9500.74,19935.70 9503.74,19935.66 9503.20,19930.70 9501.70,19926.61 9499.26,19923.38 9495.86,19921.02 9491.51,19919.53"/>
    </edge>
    <edge id=":2421_w1" function="walkingarea">
        <lane id=":2421_w1_0" index="0" allow="pedestrian" speed="2.78" length="12.87" width="4.00" shape="9510.74,19935.58 9513.74,19935.54 9525.10,19924.14 9525.20,19921.15 9520.73,19921.40 9517.09,19922.51 9514.26,19924.49 9512.26,19927.32 9511.09,19931.02"/>
    </edge>
    <edge id=":2421_w2" function="walkingarea">
        <lane id=":2421_w2_0" index="0" allow="pedestrian" speed="2.78" length="25.57" width="4.00" shape="9521.72,19907.01 9525.72,19907.15 9525.82,19904.16 9486.79,19901.91 9486.69,19904.90 9490.69,19905.04"/>
    </edge>
    <edge id=":2422_0" function="internal">
        <lane id=":2422_0_0" index="0" disallow="pedestrian" speed="16.67" length="35.59" width="3.00" shape="9930.61,19942.04 9920.47,19942.61 9913.08,19946.07 9908.42,19952.40 9906.49,19961.61"/>
    </edge>
    <edge id=":2422_1" function="internal">
        <lane id=":2422_1_0" index="0" disallow="pedestrian" speed="16.67" length="60.75" width="3.00" shape="9930.61,19942.04 9870.17,19937.04"/>
        <lane id=":2422_1_1" index="1" disallow="pedestrian" speed="16.67" length="60.75" width="3.00" shape="9930.87,19938.55 9870.28,19934.05"/>
        <lane id=":2422_1_2" index="2" disallow="pedestrian" speed="16.67" length="60.75" width="3.00" shape="9931.13,19935.06 9870.40,19931.05"/>
    </edge>
    <edge id=":2422_4" function="internal">
        <lane id=":2422_4_0" index="0" disallow="pedestrian" speed="16.67" length="61.20" width="3.50" shape="9870.87,19919.06 9931.91,19924.58"/>
        <lane id=":2422_4_1" index="1" disallow="pedestrian" speed="16.67" length="61.20" width="3.50" shape="9870.75,19922.06 9931.65,19928.07"/>
        <lane id=":2422_4_2" index="2" disallow="pedestrian" speed="16.67" length="61.20" width="3.50" shape="9870.64,19925.05 9931.39,19931.56"/>
    </edge>
    <edge id=":2422_7" function="internal">
        <lane id=":2422_7_0" index="0" disallow="pedestrian" speed="16.67" length="53.66" width="3.00" shape="9870.52,19928.05 9885.58,19930.65 9896.09,19937.08 9902.07,19947.35 9903.50,19961.46"/>
    </edge>
    <edge id=":2422_8" function="internal">
        <lane id=":2422_8_0" index="0" disallow="pedestrian" speed="16.67" length="32.51" width="3.00" shape="9891.51,19960.83 9890.63,19950.76 9886.78,19943.43 9879.95,19938.86 9874.14,19937.78"/>
        <lane id=":2422_8_1" index="1" disallow="pedestrian" speed="16.67" length="37.40" width="3.00" shape="9894.51,19960.99 9893.50,19949.58 9889.13,19941.29 9881.39,19936.11 9874.26,19934.78"/>
    </edge>
    <edge id=":2422_10" function="internal">
        <lane id=":2422_10_0" index="0" disallow="pedestrian" speed="16.67" length="12.76" width="3.50" shape="9897.51,19961.15 9899.82,19948.60"/>
        <lane id=":2422_10_1" index="1" disallow="pedestrian" speed="16.67" length="2.14" width="3.50" shape="9900.50,19961.30 9900.89,19959.19"/>
    </edge>
    <edge id=":2422_12" function="internal">
        <lane id=":2422_12_0" index="0" disallow="pedestrian" speed="16.67" length="4.04" width="3.00" shape="9874.14,19937.78 9870.17,19937.04"/>
    </edge>
    <edge id=":2422_13" function="internal">
        <lane id=":2422_13_0" index="0" disallow="pedestrian" speed="16.67" length="4.04" width="3.00" shape="9874.26,19934.78 9870.28,19934.05"/>
    </edge>
    <edge id=":2422_14" function="internal">
        <lane id=":2422_14_0" index="0" disallow="pedestrian" speed="16.67" length="41.69" width="3.50" shape="9899.82,19948.60 9900.34,19945.77 9906.97,19935.13 9917.41,19929.23 9931.65,19928.07"/>
    </edge>
    <edge id=":2422_15" function="internal">
        <lane id=":2422_15_0" index="0" disallow="pedestrian" speed="16.67" length="46.97" width="3.50" shape="9900.89,19959.19 9903.06,19947.47 9909.06,19937.90 9918.50,19932.60 9931.39,19931.56"/>
    </edge>
    <edge id=":2422_c0" function="crossing" crossingEdges="-7033 7033">
        <lane id=":2422_c0_0" index="0" allow="pedestrian" speed="2.78" length="21.00" width="4.00" shape="9930.05,19922.69 9928.48,19943.63"/>
    </edge>
    <edge id=":2422_c1" function="crossing" crossingEdges="8307 -8307">
        <lane id=":2422_c1_0" index="0" allow="pedestrian" speed="2.78" length="21.00" width="4.00" shape="9872.10,19938.62 9872.93,19917.64"/>
    </edge>
    <edge id=":2422_c2" function="crossing" crossingEdges="8309 -8309">
        <lane id=":2422_c2_0" index="0" allow="pedestrian" speed="2.78" length="18.00" width="4.00" shape="9908.10,19959.70 9890.12,19958.76"/>
    </edge>
    <edge id=":2422_w0" function="walkingarea">
        <lane id=":2422_w0_0" index="0" allow="pedestrian" speed="2.78" length="18.39" width="4.00" shape="9907.99,19961.69 9910.99,19961.85 9930.25,19946.77 9930.48,19943.78 9923.89,19943.83 9918.44,19945.06 9914.12,19947.45 9910.94,19951.03 9908.90,19955.77"/>
    </edge>
    <edge id=":2422_w1" function="walkingarea">
        <lane id=":2422_w1_0" index="0" allow="pedestrian" speed="2.78" length="40.42" width="4.00" shape="9928.06,19922.54 9932.04,19922.84 9932.27,19919.85 9871.05,19914.56 9870.93,19917.56 9874.93,19917.72"/>
    </edge>
    <edge id=":2422_w2" function="walkingarea">
        <lane id=":2422_w2_0" index="0" allow="pedestrian" speed="2.78" length="19.11" width="4.00" shape="9870.11,19938.54 9869.99,19941.54 9887.02,19960.60 9890.02,19960.75 9889.77,19954.20 9888.30,19948.78 9885.60,19944.51 9881.66,19941.38 9876.50,19939.39"/>
    </edge>
    <edge id=":2423_0" function="internal">
        <lane id=":2423_0_0" index="0" disallow="pedestrian" speed="16.67" length="36.44" width="3.50" shape="10483.35,20118.15 10475.43,20114.57 10468.12,20115.51 10461.41,20120.99 10455.31,20130.99"/>
    </edge>
    <edge id=":2423_1" function="internal">
        <lane id=":2423_1_0" index="0" disallow="pedestrian" speed="16.67" length="55.05" width="3.50" shape="10483.35,20118.15 10439.09,20085.57"/>
        <lane id=":2423_1_1" index="1" disallow="pedestrian" speed="16.67" length="55.05" width="3.50" shape="10485.38,20115.30 10441.05,20082.66"/>
        <lane id=":2423_1_2" index="2" disallow="pedestrian" speed="16.67" length="55.05" width="3.50" shape="10487.41,20112.45 10443.00,20079.76"/>
    </edge>
    <edge id=":2423_4" function="internal">
        <lane id=":2423_4_0" index="0" disallow="pedestrian" speed="16.67" length="55.31" width="3.50" shape="10448.87,20071.05 10493.49,20103.89"/>
        <lane id=":2423_4_1" index="1" disallow="pedestrian" speed="16.67" length="55.31" width="3.50" shape="10446.91,20073.96 10491.46,20106.74"/>
        <lane id=":2423_4_2" index="2" disallow="pedestrian" speed="16.67" length="55.31" width="3.50" shape="10444.96,20076.86 10489.43,20109.59"/>
    </edge>
    <edge id=":2423_7" function="internal">
        <lane id=":2423_7_0" index="0" disallow="pedestrian" speed="16.67" length="58.48" width="3.50" shape="10444.96,20076.86 10454.53,20086.29 10458.92,20098.21 10458.12,20112.61 10452.14,20129.50"/>
    </edge>
    <edge id=":2423_8" function="internal">
        <lane id=":2423_8_0" index="0" disallow="pedestrian" speed="16.67" length="37.07" width="3.50" shape="10439.49,20123.51 10444.53,20110.42 10446.14,20099.74 10444.33,20091.45 10441.84,20088.65"/>
        <lane id=":2423_8_1" index="1" disallow="pedestrian" speed="16.67" length="42.06" width="3.50" shape="10442.65,20125.01 10448.10,20110.63 10449.65,20098.77 10447.30,20089.45 10443.83,20085.69"/>
        <lane id=":2423_8_2" index="2" disallow="pedestrian" speed="16.67" length="47.07" width="3.50" shape="10445.81,20126.51 10451.67,20110.83 10453.15,20097.81 10450.26,20087.46 10445.82,20082.74"/>
    </edge>
    <edge id=":2423_11" function="internal">
        <lane id=":2423_11_0" index="0" disallow="pedestrian" speed="16.67" length="57.15" width="3.50" shape="10448.98,20128.00 10457.53,20112.59 10466.87,20103.03 10477.88,20100.64 10491.46,20106.74"/>
        <lane id=":2423_11_1" index="1" disallow="pedestrian" speed="16.67" length="53.86" width="3.50" shape="10448.98,20128.00 10456.97,20113.73 10465.74,20105.15 10476.24,20103.39 10489.43,20109.59"/>
    </edge>
    <edge id=":2423_13" function="internal">
        <lane id=":2423_13_0" index="0" disallow="pedestrian" speed="16.67" length="4.13" width="3.50" shape="10441.84,20088.65 10439.09,20085.57"/>
    </edge>
    <edge id=":2423_14" function="internal">
        <lane id=":2423_14_0" index="0" disallow="pedestrian" speed="16.67" length="4.11" width="3.50" shape="10443.83,20085.69 10441.05,20082.66"/>
    </edge>
    <edge id=":2423_15" function="internal">
        <lane id=":2423_15_0" index="0" disallow="pedestrian" speed="16.67" length="4.10" width="3.50" shape="10445.82,20082.74 10443.00,20079.76"/>
    </edge>
    <edge id=":2423_c0" function="crossing" crossingEdges="7034 -7034">
        <lane id=":2423_c0_0" index="0" allow="pedestrian" speed="2.78" length="21.00" width="4.00" shape="10492.88,20101.30 10480.70,20118.42"/>
    </edge>
    <edge id=":2423_c1" function="crossing" crossingEdges="7033 -7033">
        <lane id=":2423_c1_0" index="0" allow="pedestrian" speed="2.78" length="21.00" width="4.00" shape="10439.77,20088.14 10451.50,20070.72"/>
    </edge>
    <edge id=":2423_c2" function="crossing" crossingEdges="8264 -8264">