<?xml version='1.0' encoding='utf-8'?>
<routes xmlns:xsi="http://www.w3.org/2001/XMLSchema-instance" xsi:noNamespaceSchemaLocation="http://sumo.dlr.de/xsd/routes_file.xsd">
    <vehicle id="65730" depart="0.00">
        <route edges="-8294 -8293 -8285 8283 8284 8278 8279 8280" />
    </vehicle>
    <vehicle id="50637" depart="0.00">
        <route edges="-8306 -8308 -8307" />
    </vehicle>
    <vehicle id="78548" depart="1.00">
        <route edges="8326 8327" />
    </vehicle>
    <vehicle id="74787" depart="1.00">
        <route edges="-8292 -8753 7740 7888 7889 7022" />
    </vehicle>
    <vehicle id="27194" depart="1.00">
        <route edges="-8327 -8326 8322 8323 7389 8289 8290" />
    </vehicle>
    <vehicle id="79974" depart="1.00">
        <route edges="8309 8320 8321 8326 8327 7022" />
    </vehicle>
    <vehicle id="91805" depart="1.00">
        <route edges="-8329 -8331 -8330 -8267 -8266 -8264" />
    </vehicle>
    <vehicle id="7752" depart="1.00">
        <route edges="-8327 -8326 -8321 -8320 -8309 -7033 7034" />
    </vehicle>
    <vehicle id="84089" depart="2.00">
        <route edges="-8306 -8308 -8307" />
    </vehicle>
    <vehicle id="40796" depart="3.00">
        <route edges="-8306 -8308 -8307 -7033" />
    </vehicle>
    <vehicle id="40325" depart="4.00">
        <route edges="-8294 -8293 -8285 8283 8284 8278 8279 8280" />
    </vehicle>
    <vehicle id="24079" depart="4.00">
        <route edges="-7022 -8327 -8326" />
    </vehicle>
    <vehicle id="47886" depart="4.00">
        <route edges="-8290 -8289" />
    </vehicle>
    <vehicle id="13081" depart="6.00">
        <route edges="-7034 8264 8266 8267" />
    </vehicle>
    <vehicle id="66170" depart="7.00">
        <route edges="-8290 -8289" />
    </vehicle>
    <vehicle id="81870" depart="7.00">
        <route edges="-8327 -8326 -8329 -8331 -8330 -8267 -8266 -8264 7034" />
    </vehicle>
    <vehicle id="24616" depart="8.00">
        <route edges="-8321 -8320 -8309" />
    </vehicle>
    <vehicle id="79890" depart="9.00">
        <route edges="-8290 -8289 -7389 -8323 -8322 8326 8327 7022 -8306 -8308 -8307" />
    </vehicle>
    <vehicle id="73303" depart="9.00">
        <route edges="-8327 -8326 8322 8323 7389 -8276 -8275 -8278" />
    </vehicle>
    <vehicle id="7278" depart="9.00">
        <route edges="-7034 8264 8266 8267" />
    </vehicle>
    <vehicle id="65596" depart="11.00">
        <route edges="8307 8308 8306" />
    </vehicle>
    <vehicle id="68196" depart="11.00">
        <route edges="-8306 -8308 -8307 8309 8320 8321 8322 8323" />
    </vehicle>
    <vehicle id="43864" depart="12.00">
        <route edges="-8306 -8308 -8307" />
    </vehicle>
    <vehicle id="40471" depart="12.00">
        <route edges="-7389 -8323 -8322 -8321 -8320 -8309 8307 8308" />
    </vehicle>
    <vehicle id="12366" depart="12.00">
        <route edges="-8321 -8320 -8309" />
    </vehicle>
    <vehicle id="94669" depart="13.00">
        <route edges="-8306 -8308 -8307 -7033" />
    </vehicle>
    <vehicle id="23697" depart="13.00">
        <route edges="-8290 -8289 -7389 -8323 -8322 -8321 -8320 -8309" />
    </vehicle>
    <vehicle id="84513" depart="13.00">
        <route edges="8307 8308 8306" />
    </vehicle>
    <vehicle id="36452" depart="13.00">
        <route edges="-8294 -8293 -8285 8283 8284 8278 8279 8280" />
    </vehicle>
    <vehicle id="55926" depart="13.00">
        <route edges="-8306 -8308 -8307 8309 8320 8321 8322 8323" />
    </vehicle>
    <vehicle id="9279" depart="13.00">
        <route edges="-8323 -8322 -8321 -8320 -8309" />
    </vehicle>
    <vehicle id="76613" depart="13.00">
        <route edges="8309 8320 8321 8322 8323" />
    </vehicle>
    <vehicle id="39376" depart="14.00">
        <route edges="-8306 -8308 -8307 8309 8320 8321 8322 8323" />
    </vehicle>
    <vehicle id="62129" depart="14.00">
        <route edges="7018 -8298 -8297 -8296" />
    </vehicle>
    <vehicle id="48743" depart="14.00">
        <route edges="-8306 -8308 -8307 -7033 7034" />
    </vehicle>
    <vehicle id="39240" depart="14.00">
        <route edges="8307 8308 8306" />
    </vehicle>
    <vehicle id="67153" depart="16.00">
        <route edges="-8327 -8326 -8321 -8320 -8309" />
    </vehicle>
    <vehicle id="67376" depart="16.00">
        <route edges="-8306 -8308 -8307 -7033" />
    </vehicle>
    <vehicle id="47479" depart="16.00">
        <route edges="-7389 -8323 -8322 8326 8327" />
    </vehicle>
    <vehicle id="20541" depart="17.00">
        <route edges="-8306 -8308 -8307 8309 8320 8321 8322 8323" />
    </vehicle>
    <vehicle id="17216" depart="17.00">
        <route edges="-8294 -8293 -8285 8283 8284 8278 8279 8280" />
    </vehicle>
    <vehicle id="17513" depart="18.00">
        <route edges="-8323 -8322 -8321 -8320 -8309 8307 8308 8306" />
    </vehicle>
    <vehicle id="38141" depart="19.00">
        <route edges="-8327 -8326 -8329 -8331 -8330 -8267 -8266 -8264" />
    </vehicle>
    <vehicle id="48568" depart="20.00">
        <route edges="-8306 -8308 -8307 -7033" />
    </vehicle>
    <vehicle id="76139" depart="20.00">
        <route edges="-8306 -8308 -8307 -7033" />
    </vehicle>
    <vehicle id="72165" depart="20.00">
        <route edges="-7389 -8323 -8322 -8321 -8320 -8309" />
    </vehicle>
    <vehicle id="97094" depart="20.00">
        <route edges="-8306 -8308 -8307" />
    </vehicle>
    <vehicle id="72801" depart="21.00">
        <route edges="-8294 -8293 -8285 8283 8284 8278 8279 8280" />
    </vehicle>
    <vehicle id="64578" depart="21.00">
        <route edges="8307 8308 8306" />
    </vehicle>
    <vehicle id="22681" depart="22.00">
        <route edges="-8306 -8308 -8307 -7033" />
    </vehicle>
    <vehicle id="16406" depart="22.00">
        <route edges="8289 8290" />
    </vehicle>
    <vehicle id="67401" depart="22.00">
        <route edges="8307 8308 8306" />
    </vehicle>
    <vehicle id="26952" depart="22.00">
        <route edges="7018 -8298 -8297 -8296 -8295 -8288 -8287 8285 8293 8294" />
    </vehicle>
    <vehicle id="21625" depart="23.00">
        <route edges="-8306 -8308 -8307 -7033" />
    </vehicle>
    <vehicle id="91808" depart="23.00">
        <route edges="-7389 8269 7499 -8267 -8266 -8264 7034" />
    </vehicle>
    <vehicle id="92191" depart="23.00">
        <route edges="-8306 -8308 -8307 -7033" />
    </vehicle>
    <vehicle id="8395" depart="24.00">
        <route edges="7018 -8298 -8297 -8296 -8295 -8288 -8287 8285 8293 8294" />
    </vehicle>
    <vehicle id="77458" depart="25.00">
        <route edges="-8276 -8275 8279 8280 7499 -8267 -8266 -8264" />
    </vehicle>
    <vehicle id="30362" depart="25.00">
        <route edges="-8327 -8326 -8321 -8320 -8309" />
    </vehicle>
    <vehicle id="52941" depart="25.00">
        <route edges="-8290 -8289 -7389 -8323 -8322 -8321 -8320 -8309" />
    </vehicle>
    <vehicle id="7807" depart="25.00">
        <route edges="-7033 7034" />
    </vehicle>
    <vehicle id="89003" depart="26.00">
        <route edges="-8306 -8308 -8307 -7033 7034" />
    </vehicle>
    <vehicle id="46896" depart="26.00">
        <route edges="-8306 -8308 -8307 -7033" />
    </vehicle>
    <vehicle id="16125" depart="27.00">
        <route edges="-8290 -8289 -7389 -8323 -8322" />
    </vehicle>
    <vehicle id="38819" depart="28.00">
        <route edges="8309 8320 8321 8322 8323 7389" />
    </vehicle>
    <vehicle id="7951" depart="28.00">
        <route edges="-8306 -8308 -8307 -7033" />
    </vehicle>
    <vehicle id="29873" depart="29.00">
        <route edges="-8306 -8308 -8307" />
    </vehicle>
    <vehicle id="24146" depart="29.00">
        <route edges="-8323 -8322 -8321 -8320 -8309 8307 8308 8306" />
    </vehicle>
    <vehicle id="65883" depart="30.00">
        <route edges="-8306 -8308 -8307 -7033 7034" />
    </vehicle>
    <vehicle id="46877" depart="30.00">
        <route edges="-8290 -8289 -7389 -8323 -8322 -8321 -8320 -8309" />
    </vehicle>
    <vehicle id="8335" depart="31.00">
        <route edges="-8290 -8289 -7389 -8323 -8322 -8321 -8320 -8309" />
    </vehicle>
    <vehicle id="62436" depart="32.00">
        <route edges="-8306 -8308 -8307 -7033" />
    </vehicle>
    <vehicle id="45030" depart="33.00">
        <route edges="7018 -8298 -8297 -8296" />
    </vehicle>
    <vehicle id="61861" depart="33.00">
        <route edges="8289 8290" />
    </vehicle>
    <vehicle id="10004" depart="33.00">
        <route edges="8307 8308 8306" />
    </vehicle>
    <vehicle id="30582" depart="34.00">
        <route edges="-8290 -8289 -7389 -8323 -8322" />
    </vehicle>
    <vehicle id="88526" depart="34.00">
        <route edges="-8294 -8293 -8285 8283 8284 8278 8279 8280" />
    </vehicle>
    <vehicle id="46156" depart="34.00">
        <route edges="-8321 -8320 -8309 8307 8308 8306" />
    </vehicle>
    <vehicle id="40795" depart="34.00">
        <route edges="-8306 -8308 -8307 8309 8320 8321 8322 8323" />
    </vehicle>
    <vehicle id="36098" depart="36.00">
        <route edges="8307 8308 8306" />
    </vehicle>
    <vehicle id="91951" depart="36.00">
        <route edges="-8290 -8289 -7389 -8323 -8322 -8321 -8320 -8309" />
    </vehicle>
    <vehicle id="54137" depart="37.00">
        <route edges="-7389 -8323 -8322 -8321 -8320 -8309 8307 8308 8306" />
    </vehicle>
    <vehicle id="25244" depart="37.00">
        <route edges="8289 8290" />
    </vehicle>
    <vehicle id="7740" depart="38.00">
        <route edges="7018 -8298 -8297 -8296" />
    </vehicle>
    <vehicle id="27507" depart="38.00">
        <route edges="-8306 -8308 -8307" />
    </vehicle>
    <vehicle id="16926" depart="39.00">
        <route edges="-8306 -8308 -8307 -7033 7034" />
    </vehicle>
    <vehicle id="7803" depart="39.00">
        <route edges="-7034 7033 8309 8320 8321" />
    </vehicle>
    <vehicle id="22129" depart="40.00">
        <route edges="-8294 -8293 -8285 8283 8284 8278 8279 8280" />
    </vehicle>
    <vehicle id="96335" depart="40.00">
        <route edges="-8306 -8308 -8307 8309 8320 8321 8322 8323" />
    </vehicle>
    <vehicle id="79278" depart="40.00">
        <route edges="8289 8290" />
    </vehicle>
    <vehicle id="81998" depart="40.00">
        <route edges="8309 8320 8321" />
    </vehicle>
    <vehicle id="23681" depart="40.00">
        <route edges="-8290 -8289 -7389" />
    </vehicle>
    <vehicle id="7808" depart="41.00">
        <route edges="-7034 7033 8309 8320 8321 8322 8323" />
    </vehicle>
    <vehicle id="63000" depart="42.00">
        <route edges="-8327 -8326 -8329 -8331 -8330 -8267 -8266 -8264" />
    </vehicle>
    <vehicle id="17071" depart="43.00">
        <route edges="-8306 -8308 -8307 -7033" />
    </vehicle>
    <vehicle id="44453" depart="43.00">
        <route edges="-8306 -8308 -8307 -7033" />
    </vehicle>
    <vehicle id="52646" depart="43.00">
        <route edges="8307 8308 8306" />
    </vehicle>
    <vehicle id="80719" depart="44.00">
        <route edges="-8290 -8289 -7389 -8323 -8322" />
    </vehicle>
    <vehicle id="14007" depart="44.00">
        <route edges="-8306 -8308 -8307 8309 8320 8321" />
    </vehicle>
    <vehicle id="19616" depart="44.00">
        <route edges="-7034 7033" />
    </vehicle>
    <vehicle id="19534" depart="44.00">
        <route edges="-8306 -8308 -8307 8309 8320 8321 8322 8323" />
    </vehicle>
    <vehicle id="43159" depart="45.00">
        <route edges="-8306 -8308 -8307 -7033" />
    </vehicle>
    <vehicle id="20776" depart="45.00">
        <route edges="-8294 -8293 -8285 8283 8284 8278 8279 8280" />
    </vehicle>
    <vehicle id="39483" depart="46.00">
        <route edges="7018 -8298 -8297 -8296" />
    </vehicle>
    <vehicle id="89120" depart="46.00">
        <route edges="-8294 -8293 -8285 8283 8284 8278 8279 8280" />
    </vehicle>
    <vehicle id="25295" depart="47.00">
        <route edges="-8294 -8293 -8285 8287 8288" />
    </vehicle>
    <vehicle id="47260" depart="48.00">
        <route edges="-8327 -8326" />
    </vehicle>
    <vehicle id="21102" depart="48.00">
        <route edges="-8306 -8308 -8307" />
    </vehicle>
    <vehicle id="74414" depart="49.00">
        <route edges="8307 8308 8306" />
    </vehicle>
    <vehicle id="35560" depart="49.00">
        <route edges="8307 8308 8306" />
    </vehicle>
    <vehicle id="18145" depart="49.00">
        <route edges="-8306 -8308 -8307 8309 8320 8321" />
    </vehicle>
    <vehicle id="96611" depart="50.00">
        <route edges="-7034 7033 8307 8308 8306" />
    </vehicle>
    <vehicle id="77732" depart="50.00">
        <route edges="-8306 -8308 -8307 -7033" />
    </vehicle>
    <vehicle id="84841" depart="50.00">
        <route edges="-8306 -8308 -8307 -7033" />
    </vehicle>
    <vehicle id="90782" depart="50.00">
        <route edges="8289 8290" />
    </vehicle>
    <vehicle id="87672" depart="52.00">
        <route edges="8307 8308 8306" />
    </vehicle>
    <vehicle id="69223" depart="52.00">
        <route edges="-8306 -8308 -8307" />
    </vehicle>
    <vehicle id="77433" depart="52.00">
        <route edges="-7034 7033 8307 8308 8306" />
    </vehicle>
    <vehicle id="29458" depart="52.00">
        <route edges="-8306 -8308 -8307 -7033" />
    </vehicle>
    <vehicle id="46323" depart="52.00">
        <route edges="-8306 -8308 -8307 -7033" />
    </vehicle>
    <vehicle id="61460" depart="54.00">
        <route edges="8326 8327" />
    </vehicle>
    <vehicle id="96141" depart="54.00">
        <route edges="-8306 -8308 -8307 -7033" />
    </vehicle>
    <vehicle id="29896" depart="54.00">
        <route edges="-8321 -8320 -8309" />
    </vehicle>
    <vehicle id="89356" depart="54.00">
        <route edges="-7033 7034" />
    </vehicle>
    <vehicle id="59106" depart="54.00">
        <route edges="-8306 -8308 -8307" />
    </vehicle>
    <vehicle id="69277" depart="54.00">
        <route edges="-8306 -8308 -8307" />
    </vehicle>
    <vehicle id="62533" depart="54.00">
        <route edges="8307 8308 8306" />
    </vehicle>
    <vehicle id="12065" depart="54.00">
        <route edges="8307 8308 8306" />
    </vehicle>
    <vehicle id="7661" depart="55.00">
        <route edges="-8294 -8293 -8285" />
    </vehicle>
    <vehicle id="52988" depart="56.00">
        <route edges="-8327 -8326 -8321 -8320 -8309 8307 8308 8306" />
    </vehicle>
    <vehicle id="39880" depart="56.00">
        <route edges="-8321 -8320 -8309" />
    </vehicle>
    <vehicle id="66839" depart="57.00">
        <route edges="-8294 -8293 -8285 8283 8284 8278 8279 8280" />
    </vehicle>
    <vehicle id="74013" depart="57.00">
        <route edges="-8306 -8308 -8307 -7033" />
    </vehicle>
    <vehicle id="81308" depart="58.00">
        <route edges="-8327 -8326 -8329 -8331 -8330 -8267 -8266 -8264" />
    </vehicle>
    <vehicle id="9748" depart="59.00">
        <route edges="-8294 -8293 -8285 8283 8284 8278 8279 8280" />
    </vehicle>
    <vehicle id="44119" depart="60.00">
        <route edges="-8292 -8753 7740 7888 7889" />
    </vehicle>
    <vehicle id="15945" depart="60.00">
        <route edges="8307 8308 8306" />
    </vehicle>
    <vehicle id="23567" depart="61.00">
        <route edges="-8306 -8308 -8307 -7033 7034" />
    </vehicle>
    <vehicle id="47229" depart="61.00">
        <route edges="-7034 8264 8266 8267 8330 8331 8329 8326 8327 -7889 -7888 -7740 8753 8292" />
    </vehicle>
    <vehicle id="47324" depart="62.00">
        <route edges="-7389 -8323 -8322 -8329 -8331 -8330 -8267 -8266 -8264 7034" />
    </vehicle>
    <vehicle id="91334" depart="62.00">
        <route edges="8307 8308 8306" />
    </vehicle>
    <vehicle id="81917" depart="63.00">
        <route edges="-8294 -8293 -8285 8283 8284 8278 8279 8280" />
    </vehicle>
    <vehicle id="64492" depart="63.00">
        <route edges="-8306 -8308 -8307 -7033" />
    </vehicle>
    <vehicle id="76059" depart="63.00">
        <route edges="-7034 8264 8266 8267" />
    </vehicle>
    <vehicle id="39317" depart="64.00">
        <route edges="8326 8327" />
    </vehicle>
    <vehicle id="72666" depart="64.00">
        <route edges="-8327 -8326 8322 8323 7389" />
    </vehicle>
    <vehicle id="25373" depart="65.00">
        <route edges="-8294 -8293 -8285 8283 8284 8278 8279 8280" />
    </vehicle>
    <vehicle id="79262" depart="65.00">
        <route edges="8307 8308 8306 -7022" />
    </vehicle>
    <vehicle id="26730" depart="65.00">
        <route edges="8307 8308 8306" />
    </vehicle>
    <vehicle id="47018" depart="66.00">
        <route edges="8307 8308 8306 -7022 -8327 -8326 8322 8323 7389" />
    </vehicle>
    <vehicle id="53693" depart="67.00">
        <route edges="-8306 -8308 -8307 8309 8320 8321" />
    </vehicle>
    <vehicle id="12671" depart="67.00">
        <route edges="8309 8320 8321 8326" />
    </vehicle>
    <vehicle id="98694" depart="68.00">
        <route edges="-8294 -8293 -8285 8283 8284 8278 8279 8280" />
    </vehicle>
    <vehicle id="80633" depart="68.00">
        <route edges="-8327 -8326 -8329 -8331 -8330 -8267 -8266 -8264" />
    </vehicle>
    <vehicle id="58525" depart="69.00">
        <route edges="-8306 -8308 -8307 -7033" />
    </vehicle>
    <vehicle id="77650" depart="70.00">
        <route edges="-8294 -8293 -8285" />
    </vehicle>
    <vehicle id="93695" depart="70.00">
        <route edges="-8290 -8289 -7389 -8323 -8322 -8321 -8320 -8309" />
    </vehicle>
    <vehicle id="53533" depart="72.00">
        <route edges="-8294 -8293 -8285 8283 8284 8278 8279 8280" />
    </vehicle>
    <vehicle id="29613" depart="73.00">
        <route edges="-8290 -8289 -7389 -8323 -8322 8326 8327 7022" />
    </vehicle>
    <vehicle id="21007" depart="73.00">
        <route edges="-7034 7033 8307 8308 8306" />
    </vehicle>
    <vehicle id="1125" depart="74.00">
        <route edges="8322 8323 7389 8289 8290" />
    </vehicle>
    <vehicle id="38908" depart="74.00">
        <route edges="-8327 -8326" />
    </vehicle>
    <vehicle id="58442" depart="75.00">
        <route edges="-7033 7034" />
    </vehicle>
    <vehicle id="60500" depart="75.00">
        <route edges="-8306 -8308 -8307 8309 8320 8321 8322 8323" />
    </vehicle>
    <vehicle id="7765" depart="75.00">
        <route edges="7018 -8298 -8297 -8296 -8295 -8288 -8287 8285 8293 8294" />
    </vehicle>
    <vehicle id="55374" depart="75.00">
        <route edges="8307 8308 8306" />
    </vehicle>
    <vehicle id="89520" depart="75.00">
        <route edges="-8306 -8308 -8307 8309 8320 8321 8322 8323" />
    </vehicle>
    <vehicle id="13093" depart="76.00">
        <route edges="-8294 -8293 -8285 8283 8284 8278 8279 8280" />
    </vehicle>
    <vehicle id="27538" depart="78.00">
        <route edges="-8306 -8308 -8307 -7033" />
    </vehicle>
    <vehicle id="52944" depart="78.00">
        <route edges="-8306 -8308 -8307 -7033" />
    </vehicle>
    <vehicle id="92164" depart="79.00">
        <route edges="-8290 -8289 -7389" />
    </vehicle>
    <vehicle id="20288" depart="79.00">
        <route edges="-8306 -8308 -8307 -7033" />
    </vehicle>
    <vehicle id="15428" depart="80.00">
        <route edges="8309 8320 8321 8326 8327 7022" />
    </vehicle>
    <vehicle id="71562" depart="82.00">
        <route edges="8307 8308 8306" />
    </vehicle>
    <vehicle id="72341" depart="83.00">
        <route edges="-8306 -8308 -8307 -7033" />
    </vehicle>
    <vehicle id="84117" depart="89.00">
        <route edges="8309 8320 8321 8322 8323 7389 -8276 -8275" />
    </vehicle>
    <vehicle id="24626" depart="90.00">
        <route edges="-7034 8264 8266 8267" />
    </vehicle>
    <vehicle id="90594" depart="92.00">
        <route edges="-7034 7033 8307 8308" />
    </vehicle>
    <vehicle id="84261" depart="93.00">
        <route edges="-8327 -8326 8322 8323 7389 8289 8290" />
    </vehicle>
    <vehicle id="75737" depart="93.00">
        <route edges="-8323 -8322 -8321 -8320 -8309 8307 8308 8306" />
    </vehicle>
    <vehicle id="68823" depart="94.00">
        <route edges="8309 8320 8321 8326 8327" />
    </vehicle>
    <vehicle id="34174" depart="95.00">
        <route edges="-8290 -8289 -7389 -8323 -8322 -8321 -8320 -8309" />
    </vehicle>
    <vehicle id="81706" depart="96.00">
        <route edges="-8290 -8289 -7389 -8323 -8322 -8321 -8320 -8309" />
    </vehicle>
    <vehicle id="8096" depart="97.00">
        <route edges="8309 8320 8321 8326 8327" />
    </vehicle>
    <vehicle id="25659" depart="97.00">
        <route edges="-8306 -8308 -8307 -7033 7034" />
    </vehicle>
    <vehicle id="85464" depart="100.00">
        <route edges="-8321 -8320 -8309 8307 8308 8306" />
    </vehicle>
    <vehicle id="67904" depart="101.00">
        <route edges="-8327 -8326 -8329 -8331 -8330 -8267 -8266 -8264" />
    </vehicle>
    <vehicle id="12726" depart="101.00">
        <route edges="-8294 -8293 -8285 8283 8284 8278 8279 8280" />
    </vehicle>
    <vehicle id="40963" depart="101.00">
        <route edges="-8306 -8308 -8307 -7033 7034" />
    </vehicle>
    <vehicle id="55307" depart="103.00">
        <route edges="-8306 -8308 -8307" />
    </vehicle>
    <vehicle id="56902" depart="103.00">
        <route edges="-8276 -8275 8279 8280 7499 -8267 -8266 -8264" />
    </vehicle>
    <vehicle id="857" depart="104.00">
        <route edges="-8294 -8293 -8285" />
    </vehicle>
    <vehicle id="82961" depart="105.00">
        <route edges="-8290 -8289 -7389" />
    </vehicle>
    <vehicle id="72501" depart="105.00">
        <route edges="-8306 -8308 -8307 8309 8320 8321 8322 8323" />
    </vehicle>
    <vehicle id="94906" depart="106.00">
        <route edges="-8288 -8287 8285 8293 8294" />
    </vehicle>
    <vehicle id="15679" depart="106.00">
        <route edges="-8306 -8308 -8307" />
    </vehicle>
    <vehicle id="47022" depart="106.00">
        <route edges="8309 8320 8321 8322 8323 7389 8289 8290" />
    </vehicle>
    <vehicle id="24910" depart="108.00">
        <route edges="7018 -8298 -8297 -8296" />
    </vehicle>
    <vehicle id="32340" depart="108.00">
        <route edges="-8306 -8308 -8307" />
    </vehicle>
    <vehicle id="8331" depart="108.00">
        <route edges="8309 8320 8321 8322 8323 8269 7499 -8267 -8266 -8264 7034" />
    </vehicle>
    <vehicle id="62981" depart="109.00">
        <route edges="7018 -8298 -8297 -8296" />
    </vehicle>
    <vehicle id="70635" depart="109.00">
        <route edges="-8306 -8308 -8307 8309 8320 8321 8322 8323" />
    </vehicle>
    <vehicle id="24939" depart="110.00">
        <route edges="-8292 -8753 7740 7888 7889" />
    </vehicle>
    <vehicle id="4449" depart="111.00">
        <route edges="-8306 -8308 -8307" />
    </vehicle>
    <vehicle id="33734" depart="112.00">
        <route edges="-8294 -8293 -8285 8283 8284 8278" />
    </vehicle>
    <vehicle id="87125" depart="112.00">
        <route edges="-8306 -8308 -8307" />
    </vehicle>
    <vehicle id="59479" depart="112.00">
        <route edges="-8327 -8326" />
    </vehicle>
    <vehicle id="76396" depart="114.00">
        <route edges="-8294 -8293 -8285 8283 8284 8278 8279 8280" />
    </vehicle>
    <vehicle id="18627" depart="114.00">
        <route edges="-8306 -8308 -8307 -7033" />
    </vehicle>
    <vehicle id="35852" depart="115.00">
        <route edges="8309 8320 8321 8322 8323 7389 -8276 -8275" />
    </vehicle>
    <vehicle id="12948" depart="115.00">
        <route edges="8322 8323" />
    </vehicle>
    <vehicle id="10463" depart="115.00">
        <route edges="-7034 8264 8266 8267" />
    </vehicle>
    <vehicle id="14111" depart="116.00">
        <route edges="-7034 7033" />
    </vehicle>
    <vehicle id="66130" depart="116.00">
        <route edges="-7389 -8323 -8322 -8321 -8320 -8309 8307 8308" />
    </vehicle>
    <vehicle id="96730" depart="118.00">
        <route edges="-8294 -8293 -8285 8283 8284 8278 8279 8280" />
    </vehicle>
    <vehicle id="50003" depart="119.00">
        <route edges="-8306 -8308 -8307 -7033" />
    </vehicle>
    <vehicle id="47888" depart="119.00">
        <route edges="-8306 -8308 -8307" />
    </vehicle>
    <vehicle id="42227" depart="120.00">
        <route edges="-8306 -8308 -8307" />
    </vehicle>
    <vehicle id="78979" depart="120.00">
        <route edges="-7022 -8327 -8326" />
    </vehicle>
    <vehicle id="62179" depart="121.00">
        <route edges="-8306 -8308 -8307 8309 8320 8321" />
    </vehicle>
    <vehicle id="96185" depart="122.00">
        <route edges="-8294 -8293 -8285 8287 8288" />
    </vehicle>
    <vehicle id="93700" depart="123.00">
        <route edges="-8306 -8308 -8307 8309 8320 8321 8322 8323" />
    </vehicle>
    <vehicle id="61130" depart="124.00">
        <route edges="-8323 -8322 8326 8327 7022" />
    </vehicle>
    <vehicle id="73655" depart="124.00">
        <route edges="8264 8266 8267 -7499 -8280" />
    </vehicle>
    <vehicle id="70884" depart="126.00">
        <route edges="8307 8308 8306" />
    </vehicle>
    <vehicle id="40880" depart="126.00">
        <route edges="-8294 -8293 -8285 8287 8288" />
    </vehicle>
    <vehicle id="35316" depart="126.00">
        <route edges="8309 8320 8321 8322" />
    </vehicle>
    <vehicle id="61668" depart="127.00">
        <route edges="-8306 -8308 -8307" />
    </vehicle>
    <vehicle id="81987" depart="128.00">
        <route edges="8309 8320 8321 8322" />
    </vehicle>
    <vehicle id="90589" depart="129.00">
        <route edges="-8306 -8308 -8307" />
    </vehicle>
    <vehicle id="34471" depart="131.00">
        <route edges="-8306 -8308 -8307 -7033" />
    </vehicle>
    <vehicle id="7253" depart="131.00">
        <route edges="-8306 -8308 -8307 -7033" />
    </vehicle>
    <vehicle id="9019" depart="132.00">
        <route edges="-8290 -8289 -7389 -8323 -8322 -8321 -8320 -8309" />
    </vehicle>
    <vehicle id="17921" depart="133.00">
        <route edges="8307 8308 8306" />
    </vehicle>
    <vehicle id="67283" depart="133.00">
        <route edges="8307 8308 8306" />
    </vehicle>
    <vehicle id="33239" depart="134.00">
        <route edges="8309 8320 8321 8322" />
    </vehicle>
    <vehicle id="93825" depart="135.00">
        <route edges="-7034 8264 8266 8267" />
    </vehicle>
    <vehicle id="21497" depart="136.00">
        <route edges="-7889 -7888 -7740 8753 8292 -8290 -8289 -7389 -8323 -8322 -8321 -8320 -8309 8307 8308 8306" />
    </vehicle>
    <vehicle id="89782" depart="137.00">
        <route edges="-8306 -8308 -8307 -7033" />
    </vehicle>
    <vehicle id="98101" depart="138.00">
        <route edges="-8306 -8308 -8307 8309 8320 8321 8322 8323" />
    </vehicle>
    <vehicle id="3701" depart="138.00">
        <route edges="-8306 -8308 -8307 8309 8320 8321 8322 8323" />
    </vehicle>
    <vehicle id="34651" depart="138.00">
        <route edges="8307 8308 8306" />
    </vehicle>
    <vehicle id="43603" depart="138.00">
        <route edges="-8290 -8289 -7389 -8323 -8322 -8321 -8320 -8309 8307 8308 8306" />
    </vehicle>
    <vehicle id="80940" depart="138.00">
        <route edges="-8306 -8308 -8307" />
    </vehicle>
    <vehicle id="12222" depart="139.00">
        <route edges="-7389 -8323 -8322 -8321 -8320 -8309 8307 8308 8306" />
    </vehicle>
    <vehicle id="20898" depart="140.00">
        <route edges="-8321 -8320 -8309 8307 8308 8306" />
    </vehicle>
    <vehicle id="83415" depart="141.00">
        <route edges="-8306 -8308 -8307 -7033" />
    </vehicle>
    <vehicle id="64464" depart="142.00">
        <route edges="-8306 -8308 -8307" />
    </vehicle>
    <vehicle id="45276" depart="143.00">
        <route edges="-8306 -8308 -8307 8309 8320 8321 8322 8323" />
    </vehicle>
    <vehicle id="52067" depart="143.00">
        <route edges="-7389 -8323 -8322 -8321 -8320 -8309" />
    </vehicle>
    <vehicle id="82557" depart="144.00">
        <route edges="-8306 -8308 -8307 8309 8320 8321 8322 8323" />
    </vehicle>
    <vehicle id="25239" depart="144.00">
        <route edges="-8290 -8289 -7389 -8323 -8322 -8321 -8320 -8309 8307 8308 8306" />
    </vehicle>
    <vehicle id="93990" depart="144.00">
        <route edges="8264 8266 8267 8330 8331 8329" />
    </vehicle>
    <vehicle id="71463" depart="144.00">
        <route edges="-8327 -8326 -8329 -8331 -8330 -8267 -8266 -8264" />
    </vehicle>
    <vehicle id="51730" depart="144.00">
        <route edges="8307 8308 8306" />
    </vehicle>
    <vehicle id="60763" depart="144.00">
        <route edges="-8321 -8320 -8309 8307 8308 8306" />
    </vehicle>
    <vehicle id="89802" depart="145.00">
        <route edges="-8306 -8308 -8307" />
    </vehicle>
    <vehicle id="62790" depart="147.00">
        <route edges="-8306 -8308 -8307" />
    </vehicle>
    <vehicle id="63615" depart="148.00">
        <route edges="-8327 -8326 -8329 -8331 -8330 -8267 -8266 -8264" />
    </vehicle>
    <vehicle id="72098" depart="148.00">
        <route edges="-8321 -8320 -8309 8307 8308 8306" />
    </vehicle>
    <vehicle id="5447" depart="149.00">
        <route edges="-8306 -8308 -8307 -7033" />
    </vehicle>
    <vehicle id="97386" depart="149.00">
        <route edges="8309 8320 8321" />
    </vehicle>
    <vehicle id="37180" depart="149.00">
        <route edges="-8306 -8308 -8307" />
    </vehicle>
    <vehicle id="46753" depart="150.00">
        <route edges="7018 -8298 -8297 -8296" />
    </vehicle>
    <vehicle id="25526" depart="150.00">
        <route edges="-8294 -8293 -8285" />
    </vehicle>
    <vehicle id="12525" depart="150.00">
        <route edges="7389 8289 8290" />
    </vehicle>
    <vehicle id="48220" depart="150.00">
        <route edges="8309 8320 8321" />
    </vehicle>
    <vehicle id="54732" depart="150.00">
        <route edges="-7389 -8323 -8322 8326 8327 7022 -8306 -8308 -8307" />
    </vehicle>
    <vehicle id="90503" depart="151.00">
        <route edges="-8306 -8308 -8307" />
    </vehicle>
    <vehicle id="17422" depart="151.00">
        <route edges="8326 8327" />
    </vehicle>