<?xml version='1.0' encoding='UTF-8'?>
<configuration xmlns:xsi="http://www.w3.org/2001/XMLSchema-instance" xsi:noNamespaceSchemaLocation="http://sumo.dlr.de/xsd/sumoConfiguration.xsd">

    <input>
        <net-file value="ChongQing-114.net.xml" />
        <route-files value="ChongQing-114.rou.xml" />
        <!-- <route-files value="ChongQing_NEW2023-07-01.rou.xml" /> -->
    </input>
    <vehicles>
        <vType id="car" maxSpeed="100"/>
    </vehicles>

</configuration>