<?xml version="1.0" encoding="UTF-8"?>

<!-- generated on 2026-03-19 23:01:39.085818 by routeSampler.py v1_24_0+0000-b72eb3fabc8
<configuration>
    <route-files value="input_routes.rou.xml"/>
    <edgedata-files value="counts.xml"/>
    <output-file value="testsumo.rou.xml"/>
</configuration>
-->

<routes xmlns:xsi="http://www.w3.org/2001/XMLSchema-instance" xsi:noNamespaceSchemaLocation="http://sumo.dlr.de/xsd/routes_file.xsd">
<!-- begin="0.0" end="600.0" -->
    <vehicle id="0" depart="0.11">
        <route edges="955 -957 -949 -946 -950 -941 939 -925 -924"/>
    </vehicle>
    <vehicle id="1" depart="0.38">
        <route edges="517 523 -332 -1489 -1488 932 933 -1463 950 955 975 1441 1442 -1497 -1496 1377 -1378"/>
    </vehicle>
    <vehicle id="2" depart="0.45">
        <route edges="-879 -878 -821 -816 -352 -1444 -1443 -971 -328 1453 -1448 -1447 -935 -934 157 -99 -96 -95 87 -83 -85 -84 -47 38 -31 -29 -18 -17"/>
    </vehicle>
    <vehicle id="3" depart="0.56">
        <route edges="1734 1735 781 785 -1723 -1722 -1719 -1718 -1713 -1712 -1717 -1716 -1709 -1708 -1705 -1704 -1741 -1740 -1757 -1756 -1742 -1676 -1675 -1674 -1673 -1670 -1669 -1668 -1667 -352 1434 1435 -1430 1005 1004 -1014 -1429"/>
    </vehicle>
    <vehicle id="4" depart="0.76">
        <route edges="-1389 -1501 -1500 -1499 -1498 -1432 -1435 -1434 352 1667 1668 1669 1670"/>
    </vehicle>
    <vehicle id="5" depart="0.99">
        <route edges="909 -1748 -1747 -1738 -1757 -1756 -1742 -1676 -1675 -1674 -1673 -1670 -1669 -1668 -1667 -352 1434 1435 -1430 -1424 1014 1015 1401 1394 1404 -410 -1011"/>
    </vehicle>
    <vehicle id="6" depart="1.25">
        <route edges="-1031 -1023 -410 -1011 -1012 -1006 -1003 -1384 -1383 -1442 -1441 -975 -955 -950 1463"/>
    </vehicle>
    <vehicle id="7" depart="1.31">
        <route edges="517 523 -332 -1489 -1488 932 933 -1463 950 955 975 1441 1442 -1497 -1496 1377 -1378"/>
    </vehicle>
    <vehicle id="8" depart="1.39">
        <route edges="955 -957 -949 -946 -950 -941 939 -925 -924"/>
    </vehicle>
    <vehicle id="9" depart="1.62">
        <route edges="934 935 641 382 738 809 1642 1643 1638 1639 1634 1635 1632 1633 1644 1645 1646 1647 783 1730"/>
    </vehicle>
    <vehicle id="10" depart="2.22">
        <route edges="-1003 -1499 -1498 -1432 -1435 -1434 352 1667 1668 1669 1670 1673 1674 1675 1676 1742 1756 1744 -1754 -909 -908 -777 -776 -790 -789 725 1736 1737 1781 1782"/>
    </vehicle>
    <vehicle id="11" depart="2.30">
        <route edges="925 -939 -937 -926 -922 -921 304 -1542 -1541 288 -283 -195 194 204 234 235 -214 -187"/>
    </vehicle>
    <vehicle id="12" depart="2.38">
        <route edges="868 -867 871 -1753 -1752 1742 1756 1757 804 805 -641 -935 -934 157 -99 -96 -95 87 -83 -85 -84 -47 38"/>
    </vehicle>
    <vehicle id="13" depart="2.92">
        <route edges="-1389 -1501 -1500 -1499 -1498 -1432 -1435 -1434 352 1667 1668 1669 1670"/>
    </vehicle>
    <vehicle id="14" depart="3.08">
        <route edges="-865 -839 -837 -835 -648 1020 -1019 1427 -1428 -1007 1432 1498 1499 -1384 1380 -1381 1372 1496 1497"/>
    </vehicle>
    <vehicle id="15" depart="4.08">
        <route edges="-1668 -1667 -352 -1437 -1495 -1494 1383 1380 1386 1387 -1389 -1501 -1500"/>
    </vehicle>
    <vehicle id="16" depart="4.09">
        <route edges="2 9 413 -421 -435 441 445 655 670 677 1788 1789 1779 1780 1335 1331 1327 1325 1323 -1738 804 805 -641 -935 -934 157 -99 -98 -149 -145 132 139"/>
    </vehicle>
    <vehicle id="17" depart="4.10">
        <route edges="-1668 -1667 -352 -1437 -1495 -1494 1383 1380 1386 1387 -1389 -1501 -1500"/>
    </vehicle>
    <vehicle id="18" depart="4.23">
        <route edges="-1389 -1501 -1500 -1499 -1498 -1432 -1435 -1434 352 1667 1668 1669 1670"/>
    </vehicle>
    <vehicle id="19" depart="4.29">
        <route edges="1401 1394 1404 -410 -1011 -1012 -1392 1390"/>
    </vehicle>
    <vehicle id="20" depart="4.40">
        <route edges="1328 1327 1325 1323 -1738 -1757 -1756 -1742 -1676 -1675 -1674 -1673 -1670 -1669 -1668 -1667 -352 1434 1435 -1430 -1424 1014 1015 1011 410 -1404"/>
    </vehicle>
    <vehicle id="21" depart="4.44">
        <route edges="925 -939 -937 -926 -922 -921 304 -1542 -1541 288 -283 -195 194 204 234 235 -214 -187"/>
    </vehicle>
    <vehicle id="22" depart="4.66">
        <route edges="-1656 -707 -1653 -1652 -1655 -1654 781 1730 1731 766 892 895 896 813 814 803 805 -641 1447 1448 -1453 328 1490 1492 1493 -949 947 1449"/>
    </vehicle>
    <vehicle id="23" depart="5.27">
        <route edges="1785 1786 722 -1766 -1773 -1749 1751 -1738 804 805 -641 -935 -934 157 -99 -96 -95 87 86 95 78 -74 76 59"/>
    </vehicle>
    <vehicle id="24" depart="5.73">
        <route edges="-1003 -1499 -1498 -1432 -1435 -1434 352 1667 1668 1669 1670 1673 1674 1675 1676 1742 1756 1744 -1754 -909 -908 -777 -776 -790 -789 725 1736 1737 1781 1782"/>
    </vehicle>
    <vehicle id="25" depart="6.01">
        <route edges="698 -707 -1653 -1652 -1655 -1654 781 1730 1731 766 892 895 896 813 814 803 805 -641 -935 -934 157 -99 -96 -95 87 -83 -63"/>
    </vehicle>
    <vehicle id="26" depart="6.07">
        <route edges="1642 1643 1630 1631 807 808 792 793 -352 1434 1435 -1430 1005"/>
    </vehicle>
    <vehicle id="27" depart="6.30">
        <route edges="-909 911 1323 -1738 804 805 -641 -935 -934 157 -99"/>
    </vehicle>
    <vehicle id="28" depart="6.33">
        <route edges="698 -707 -705 -704 -1737 -1736 -725 -1333 1335 1331 1327 1325 1323 -1738 -1757 -1756 -1742 -1676 -1675 -1674 -1673 -1670 -1669 -1668 -1667 -352 1434 1435 -1430 -1424 -1418 1417 1041 1054 1067 1408 1409 1077 -1081 -1080 -829 -1021 -1020"/>
    </vehicle>
    <vehicle id="29" depart="6.33">
        <route edges="909 -1748 -1747 -1738 -1757 -1756 -1742 -1676 -1675 -1674 -1673 -1670 -1669 -1668 -1667 -352 1434 1435 -1430 -1424 1014 1015 1401 1394 1404 -410 -1011"/>
    </vehicle>
    <vehicle id="30" depart="6.65">
        <route edges="698 -707 -1653 -1652 -1655 -1654 781 1730 1731 766 892 895 896 813 814 803 805 -641 -935 -934 157 -99 -96 -95 87 -83 -63"/>
    </vehicle>
    <vehicle id="31" depart="7.15">
        <route edges="99 156 934 935 1457 -324 326 -935 -934 157 -99 -96 -95 87 -83 -85 -84 -46 -45 69"/>
    </vehicle>
    <vehicle id="32" depart="7.40">
        <route edges="99 156 934 935 1457 -324 326 -935 -934 157 -99 -96 -95 87 -83 -85 -84 -46 -45 69"/>
    </vehicle>
    <vehicle id="33" depart="7.56">
        <route edges="1744 -1754 -1748 -1747 -1738 804 805 -641 -935 -934 157 -99 -98 -149 -145 132 139 140 553 -547 539 540 541 547"/>
    </vehicle>
    <vehicle id="34" depart="7.74">
        <route edges="-1414 -1413 1039 1050 1065 1064 1060 1073 1349"/>
    </vehicle>
    <vehicle id="35" depart="8.11">
        <route edges="517 523 -332 -1489 -1488 932 933 -1463 950 955 975 1441 1442 -1497 -1496 1377 -1378"/>
    </vehicle>
    <vehicle id="36" depart="8.20">
        <route edges="-1785 693 1779 1780 1335 1331 1327 1325 1323 -1738 804 805 -641 1447 1448 -1453 328 1490 1492 1493"/>
    </vehicle>
    <vehicle id="37" depart="8.60">
        <route edges="-1785 693 1779 1780 1335 1331 1327 1325 1323 -1738 804 805 -641 1447 1448 -1453 328 1490 1492 1493"/>
    </vehicle>
    <vehicle id="38" depart="8.62">
        <route edges="1780 1335 1331 1327 1325 1323 -1738 804 805 -641 -935 -934 157 -99 -98 -149 -145 132 139 140 553 548"/>
    </vehicle>
    <vehicle id="39" depart="8.63">
        <route edges="1328 1327 1325 1323 -1738 -1757 -1756 -1742 -1676 -1675 -1674 -1673 -1670 -1669 -1668 -1667 -352 1434 1435 -1430 -1424 1014 1015 1011 410 -1404"/>
    </vehicle>
    <vehicle id="40" depart="8.74">
        <route edges="925 -939 -937 -926 -922 -921 304 -1542 -1541 288 -283 -195 194 204 234 235 -214 -187"/>
    </vehicle>
    <vehicle id="41" depart="8.77">
        <route edges="-1166 -1165 -1151 -1578 -1577 -1130 -1114 -1117 -1112 1574 -1343 -1342 354 359 -1409 -1408 -1067 -1054 -1041 -1417 -1420 -1419 -1429 -1428 -1007 -1435 -1434 352 1667 1668 1669 1670 1673 1674 1675 1676 1742 1756 1744 -1754 -909 -908 -777 -776 1726 -1722"/>
    </vehicle>
    <vehicle id="42" depart="8.79">
        <route edges="-1756 -1742 -1676 -1675 1675 1676 1742 1756 1757 804 805 -641 -935 -934 157 -99 -98 -149 -145 132 139 140 553 -547"/>
    </vehicle>
    <vehicle id="43" depart="9.19">
        <route edges="99 156 934 935 1457 -324 326 -935 -934 157 -99 -96 -95 87 -83 -85 -84 -46 -45 69"/>
    </vehicle>
    <vehicle id="44" depart="9.42">
        <route edges="-1389 -1501 -1500 -1499 -1498 -1432 -1435 -1434 352 1667 1668 1669 1670"/>
    </vehicle>
    <vehicle id="45" depart="9.51">
        <route edges="1429 1014 -1004 -1003 -1499 -1498 -1432 -1435 -1434 352 816 821 -823 1677"/>
    </vehicle>
    <vehicle id="46" depart="9.55">
        <route edges="-1661 -1660 699 -697 1779 1780 1335 1331 1327 1325 1323 -1738 -1757 -1756 -1742 -1676 -1675 -1674 -1673 -1670 -1669 -1668 -1667 -352 1434 1435 -1430 -1424 1014 1015 1401 1402 -1400 -1406 -1415"/>
    </vehicle>
    <vehicle id="47" depart="10.00">
        <route edges="-1414 -1413 1039 1050 1065 1064 1060 1073 1349"/>
    </vehicle>
    <vehicle id="48" depart="10.01">
        <route edges="925 -939 -937 -926 -922 -921 304 -1542 -1541 288 -283 -195 194 204 234 235 -214 -187"/>
    </vehicle>
    <vehicle id="49" depart="10.60">
        <route edges="517 523 -332 -1489 -1488 932 933 -1463 950 955 975 1441 1442 -1497 -1496 1377 -1378"/>
    </vehicle>
    <vehicle id="50" depart="10.63">
        <route edges="-1073 -1060 -1064 -1065 -1050 -1039 -1041 -1417 -1420 -1419 -1429 -1428 -1007 -1435 -1434 -1444 -1443 -971 -328 1453 -1448 -1447 -935 -934 157 -99 -98 -149"/>
    </vehicle>
    <vehicle id="51" depart="10.97">
        <route edges="909 -1748 -1747 -1738 -1757 -1756 -1742 -1676 -1675 -1674 -1673 -1670 -1669 -1668 -1667 -352 1434 1435 -1430 -1424 1014 1015 1401 1394 1404 -410 -1011"/>
    </vehicle>
    <vehicle id="52" depart="11.12">
        <route edges="1328 1327 1325 1323 -1738 -1757 -1756 -1742 -1676 -1675 -1674 -1673 -1670 -1669 -1668 -1667 -352 1434 1435 -1430 -1424 1014 1015 1011 410 -1404"/>
    </vehicle>
    <vehicle id="53" depart="11.37">
        <route edges="-1389 -1501 -1500 -1499 -1498 -1432 -1435 -1434 352 1667 1668 1669 1670"/>
    </vehicle>
    <vehicle id="54" depart="11.46">
        <route edges="-1779 -693 1785 1786 722 -1766 -1773 -1749 1751 -1738 804 805 -641 -935 -934 157 -99 -96 -95 87 -83 -85 -84 -46 -54"/>
    </vehicle>
    <vehicle id="55" depart="11.50">
        <route edges="-1785 693 1779 1780 1335 1331 1327 1325 1323 -1738 804 805 -641 1447 1448 -1453 328 1490 1492 1493"/>
    </vehicle>
    <vehicle id="56" depart="11.67">
        <route edges="517 523 -332 -1489 -1488 932 933 -1463 950 955 975 1441 1442 -1497 -1496 1377 -1378"/>
    </vehicle>
    <vehicle id="57" depart="12.01">
        <route edges="925 -939 -937 -926 -922 -921 304 -1542 -1541 288 -283 -195 194 204 234 235 -214 -187"/>
    </vehicle>
    <vehicle id="58" depart="12.45">
        <route edges="939 -925 -929 937 941 1463 1464 324 1450 328 971 1443 1444 352"/>
    </vehicle>
    <vehicle id="59" depart="12.61">
        <route edges="517 523 -332 -1489 -1488 932 933 -1463 950 955 975 1441 1442 -1497 -1496 1377 -1378"/>
    </vehicle>
    <vehicle id="60" depart="12.99">
        <route edges="1328 1327 1325 1323 -1738 -1757 -1756 -1742 -1676 -1675 -1674 -1673 -1670 -1669 -1668 -1667 -352 1434 1435 -1430 -1424 1014 1015 1011 410 -1404"/>
    </vehicle>
    <vehicle id="61" depart="13.02">
        <route edges="800 803 805 -641 1447 1448 -1453 328 1490 1492 1493 957"/>
    </vehicle>
    <vehicle id="62" depart="13.25">
        <route edges="1752 1739 1751 -1738 804 805 -641 -935 -934 157 -99 -98 -149 -145 132 139 136 137 131 133"/>
    </vehicle>
    <vehicle id="63" depart="13.33">
        <route edges="-1498 -1432 -1435 -1434 352 1667 1668 1669 1670 1673 1674 1675 1676 1752 1739 1751 -1323 -1325 -1327 -1331 -1335 -1780 -1782 -1781 704 705 707 1656"/>
    </vehicle>
    <vehicle id="64" depart="14.16">
        <route edges="99 156 934 935 1457 -324 326 -935 -934 157 -99 -96 -95 87 -83 -85 -84 -46 -45 69"/>
    </vehicle>
    <vehicle id="65" depart="14.42">
        <route edges="-1739 -1752 1742 1756 1757 804 805 -641 -935 -934 157 -99 -96 -95 87 -83 -85 -84 -47 -34 -15"/>
    </vehicle>
    <vehicle id="66" depart="14.47">
        <route edges="517 523 -332 -1489 -1488 932 933 -1463 950 955 975 1441 1442 -1497 -1496 1377 -1378"/>
    </vehicle>
    <vehicle id="67" depart="14.77">
        <route edges="-1414 -1413 1039 1050 1065 1064 1060 1073 1349"/>
    </vehicle>
    <vehicle id="68" depart="14.80">
        <route edges="517 523 -332 -1489 -1488 932 933 -1463 950 955 975 1441 1442 -1497 -1496 1377 -1378"/>
    </vehicle>
    <vehicle id="69" depart="14.86">
        <route edges="925 -939 -937 -926 -922 -921 304 -1542 -1541 288 -283 -195 194 204 234 235 -214 -187"/>
    </vehicle>
    <vehicle id="70" depart="14.99">
        <route edges="-1389 -1501 -1500 -1499 -1498 -1432 -1435 -1434 352 1667 1668 1669 1670"/>
    </vehicle>
    <vehicle id="71" depart="15.34">
        <route edges="909 -1748 -1747 -1738 -1757 -1756 -1742 -1676 -1675 -1674 -1673 -1670 -1669 -1668 -1667 -352 1434 1435 -1430 -1424 1014 1015 1401 1394 1404 -410 -1011"/>
    </vehicle>
    <vehicle id="72" depart="15.49">
        <route edges="2 9 413 -421 -435 441 445 655 670 677 1788 1789 1779 1780 1335 1331 1327 1325 1323 -1738 804 805 -641 -935 -934 157 -99 -98 -149 -145 132 139"/>
    </vehicle>
    <vehicle id="73" depart="16.12">
        <route edges="909 -1748 -1747 -1738 -1757 -1756 -1742 -1676 -1675 -1674 -1673 -1670 -1669 -1668 -1667 -352 1434 1435 -1430 -1424 1014 1015 1401 1394 1404 -410 -1011"/>
    </vehicle>
    <vehicle id="74" depart="16.25">
        <route edges="868 -867 871 -1753 -1752 1742 1756 1757 804 805 -641 -935 -934 157 -99 -96 -95 87 -83 -85 -84 -47 38"/>
    </vehicle>
    <vehicle id="75" depart="16.48">
        <route edges="1476 1463 1464 326 641 -805 -804 1738 -1323 -1325 -1327 -1331 -1335 -1780 -1779 -1789 -1788 -677 -670 -655 449 653"/>
    </vehicle>
    <vehicle id="76" depart="16.94">
        <route edges="803 -804 -1757 -1756 -1742 -1676 -1675 -1674 -1673 -1670 -1669 -1668 -1667 -352 -1437 -1495 -1494 1383 1384 -1499"/>
    </vehicle>
    <vehicle id="77" depart="17.28">
        <route edges="517 523 -332 -1489 -1488 932 933 -1463 950 955 975 1441 1442 -1497 -1496 1377 -1378"/>
    </vehicle>
    <vehicle id="78" depart="17.37">
        <route edges="-1389 -1501 -1500 -1499 -1498 -1432 -1435 -1434 352 1667 1668 1669 1670"/>
    </vehicle>
    <vehicle id="79" depart="17.50">
        <route edges="1780 1335 1331 1327 1325 1323 -1738 804 805 -641 -935 -934 157 -99 -98 -149 -145 132 139 140 553 548"/>
    </vehicle>
    <vehicle id="80" depart="18.25">
        <route edges="-1389 -1501 -1500 -1499 -1498 -1432 -1435 -1434 352 1667 1668 1669 1670"/>
    </vehicle>
    <vehicle id="81" depart="18.27">
        <route edges="800 803 805 -641 1447 1448 -1453 328 1490 1492 1493 957"/>
    </vehicle>
    <vehicle id="82" depart="18.56">
        <route edges="-1003 -1499 -1498 -1432 -1435 -1434 352 1667 1668 1669 1670 1673 1674 1675 1676 1742 1756 1744 -1754 -909 -908 -777 -776 -790 -789 725 1736 1737 1781 1782"/>
    </vehicle>
    <vehicle id="83" depart="18.81">
        <route edges="-1661 -1660 699 -697 1779 1780 1335 1331 1327 1325 1323 -1738 -1757 -1756 -1742 -1676 -1675 -1674 -1673 -1670 -1669 -1668 -1667 -352 1434 1435 -1430 -1424 1014 1015 1401 1402 -1400 -1406 -1415"/>
    </vehicle>
    <vehicle id="84" depart="18.91">
        <route edges="-1498 -1432 -1435 -1434 352 1667 1668 1669 1670 1673 1674 1675 1676 1752 1739 1751 -1323 -1325 -1327 -1331 -1335 -1780 -1782 -1781 704 705 707 1656"/>
    </vehicle>
    <vehicle id="85" depart="19.03">
        <route edges="-1483 1486 1487 1462 -1464 -1463 950 955 975 1441 1442 1383 1384 1003 1004 -1014 -1418 1417 1041 1054 1067 1408 1409 1077 1082 1083 1188 1193 1594 1595 1223 -1224"/>
    </vehicle>
    <vehicle id="86" depart="19.43">
        <route edges="517 523 -332 -1489 -1488 932 933 -1463 950 955 975 1441 1442 -1497 -1496 1377 -1378"/>
    </vehicle>
    <vehicle id="87" depart="19.47">
        <route edges="1780 1335 1331 1327 1325 1323 -1738 804 805 -641 -935 -934 157 -99 -98 -149 -145 132 139 140 553 548"/>
    </vehicle>
    <vehicle id="88" depart="19.71">
        <route edges="1494 1495 1437 -1444 -1443 -971 -328 1453 -1448 -1447 -935 -934 157 -99 -96 -95 87 -83 -63 -56 46 84"/>
    </vehicle>
    <vehicle id="89" depart="19.81">
        <route edges="-1185 -1175 1177 -1083 -1082 -1077 -1409 -1408 -1067 -1054 1039 -1037 -1398 -1397 -1402 -1401 -1012 -1392 -1391 -1387 -1386 -1381 -1373 -1379 -1378 -979 966 967 1519 -1514"/>
    </vehicle>
    <vehicle id="90" depart="19.96">
        <route edges="698 -707 -1653 -1652 -1655 -1654 781 1730 1731 766 892 895 896 813 814 803 805 -641 -935 -934 157 -99 -96 -95 87 -83 -63"/>
    </vehicle>
    <vehicle id="91" depart="20.64">
        <route edges="800 803 805 -641 1447 1448 -1453 328 1490 1492 1493 957"/>
    </vehicle>
    <vehicle id="92" depart="20.79">
        <route edges="-776 1763 1764 1331 1327 1325 1323 -1738 804 805 -641 -935 -934 157 -99 -98 -149 -145 132 -133 -129 128 145"/>
    </vehicle>
    <vehicle id="93" depart="21.13">
        <route edges="-1498 -1432 -1435 -1434 352 1667 1668 1669 1670 1673 1674 1675 1676 1752 1739 1751 -1323 -1325 -1327 -1331 -1335 -1780 -1782 -1781 704 705 707 1656"/>
    </vehicle>
    <vehicle id="94" depart="21.58">
        <route edges="1703 813 -812 -809 741 792 793 -352 1434 1435"/>
    </vehicle>
    <vehicle id="95" depart="22.27">
        <route edges="-559 561 -574 -573 2 9 413 -421 -435 441 445 655 670 677 1788 1789 1779 1780 1335 1331 1327 1325 1323 -1738 804 805 -641 -935 -934 157 -99 -96 -95 87 -83 -85 -84 -47 38"/>
    </vehicle>
    <vehicle id="96" depart="22.33">
        <route edges="800 803 805 -641 1447 1448 -1453 328 1490 1492 1493 957"/>
    </vehicle>
    <vehicle id="97" depart="22.44">
        <route edges="-139 -133 -129 128 145 149 98 99 156 934 935 1447 1448 -1453 328 971 1443 1444 1434 1435 -1430 -1424 -1418 1417 1041 1054 1067 1408 1409 -359 -354 1342 1343 1096 -1094 -1093 -1085 243 244 260 272 273 1168 1169 602 601 606 590"/>
    </vehicle>
    <vehicle id="98" depart="22.62">
        <route edges="517 523 -332 -1489 -1488 932 933 -1463 950 955 975 1441 1442 -1497 -1496 1377 -1378"/>
    </vehicle>
    <vehicle id="99" depart="22.83">
        <route edges="1493 -949 -948 1464 326 641 -805 -804 1738 -1323 -1325 -1327 -1331 -1335 -1780 1783"/>
    </vehicle>
    <vehicle id="100" depart="22.85">
        <route edges="-776 1763 1764 1331 1327 1325 1323 -1738 804 805 -641 -935 -934 157 -99 -98 -149 -145 132 -133 -129 128 145"/>
    </vehicle>
    <vehicle id="101" depart="23.25">
        <route edges="326 1447 1448 -1453 328 971 1443 1444 1434 1435 -1430 -1424 -1418 1417 1041 1054 1067 1408 1409 -359 -354 1342 1343 1096 -1094 -1093 -1085 243 244 260 272 273 1168 1169 602 615 617 -618 -594 -580"/>
    </vehicle>
    <vehicle id="102" depart="24.17">
        <route edges="517 523 -332 -1489 -1488 932 933 -1463 950 955 975 1441 1442 -1497 -1496 1377 -1378"/>
    </vehicle>
    <vehicle id="103" depart="24.56">
        <route edges="-1785 693 1779 1780 1335 1331 1327 1325 1323 -1738 804 805 -641 1447 1448 -1453 328 1490 1492 1493"/>
    </vehicle>
    <vehicle id="104" depart="24.64">
        <route edges="517 523 -332 -1489 -1488 932 933 -1463 950 955 975 1441 1442 -1497 -1496 1377 -1378"/>
    </vehicle>
    <vehicle id="105" depart="24.86">
        <route edges="-1389 -1501 -1500 -1499 -1498 -1432 -1435 -1434 352 1667 1668 1669 1670"/>
    </vehicle>
    <vehicle id="106" depart="24.94">
        <route edges="1429 1014 -1004 -1003 -1499 -1498 -1432 -1435 -1434 352 816 821 -823 1677"/>
    </vehicle>
    <vehicle id="107" depart="25.18">
        <route edges="1757 804 -804 -1757 -1756 -1742 -1676 -1675 -1674 -1673 -1670 -1669 -1668 -1667 -352 -1437 -1495 -1494 1383 1384"/>
    </vehicle>
    <vehicle id="108" depart="25.64">
        <route edges="-1779 -693 1785 1786 722 -1766 -1773 -1749 1751 -1738 804 805 -641 -935 -934 157 -99 -96 -95 87 -83 -85 -84 -46 -54"/>
    </vehicle>
    <vehicle id="109" depart="25.99">
        <route edges="1734 1735 781 785 -1723 -1722 -1719 -1718 -1713 -1712 -1717 -1716 -1709 -1708 -1705 -1704 -1741 -1740 -1757 -1756 -1742 -1676 -1675 -1674 -1673 -1670 -1669 -1668 -1667 -352 1434 1435 -1430 1005 1004 -1014 -1429"/>
    </vehicle>
    <vehicle id="110" depart="26.71">
        <route edges="-1003 -1499 -1498 -1432 -1435 -1434 352 1667 1668 1669 1670 1673 1674 1675 1676 1742 1756 1744 -1754 -909 -908 -777 -776 -790 -789 725 1736 1737 1781 1782"/>
    </vehicle>
    <vehicle id="111" depart="27.64">
        <route edges="-1414 -1413 1039 1050 1065 1064 1060 1073 1349"/>
    </vehicle>
    <vehicle id="112" depart="27.72">
        <route edges="517 523 -332 -1489 -1488 932 933 -1463 950 955 975 1441 1442 -1497 -1496 1377 -1378"/>
    </vehicle>
    <vehicle id="113" depart="28.18">
        <route edges="-1175 1177 -1083 -1082 -1077 -1409 -1408 -1067 -1054 1039 -1037 -1398 1396 -1406 -1415 -1414 1041"/>
    </vehicle>
    <vehicle id="114" depart="28.20">
        <route edges="-1483 1486 1487 1462 -1464 -1463 950 955 975 1441 1442 1383 1384 1003 1004 -1014 -1418 1417 1041 1054 1067 1408 1409 1077 1082 1083 1188 1193 1594 1595 1223 -1224"/>
    </vehicle>
    <vehicle id="115" depart="28.24">
        <route edges="-1464 -1463 950 955 975 1441 1442 1383 1384 1003 1004 1015 1401 1402 1397 1398 1028 1033 1048 1059 1062 1354"/>
    </vehicle>
    <vehicle id="116" depart="28.33">
        <route edges="925 -939 -937 -926 -922 -921 304 -1542 -1541 288 -283 -195 194 204 234 235 -214 -187"/>
    </vehicle>
    <vehicle id="117" depart="28.75">
        <route edges="925 -939 -937 -926 -922 -921 304 -1542 -1541 288 -283 -195 194 204 234 235 -214 -187"/>
    </vehicle>
    <vehicle id="118" depart="28.85">
        <route edges="925 -939 -937 -926 -922 -921 304 -1542 -1541 288 -283 -195 194 204 234 235 -214 -187"/>
    </vehicle>
    <vehicle id="119" depart="29.71">
        <route edges="99 156 934 935 1457 -324 326 -935 -934 157 -99 -96 -95 87 -83 -85 -84 -46 -45 69"/>
    </vehicle>
    <vehicle id="120" depart="29.76">
        <route edges="909 -1748 -1747 -1738 -1757 -1756 -1742 -1676 -1675 -1674 -1673 -1670 -1669 -1668 -1667 -352 1434 1435 -1430 -1424 1014 1015 1401 1394 1404 -410 -1011"/>
    </vehicle>
    <vehicle id="121" depart="29.80">
        <route edges="-1756 -1742 -1676 -1675 1675 1676 1742 1756 1757 804 805 -641 -935 -934 157 -99 -98 -149 -145 132 139 140 553 -547"/>
    </vehicle>
    <vehicle id="122" depart="30.30">
        <route edges="909 -1748 -1747 -1738 -1757 -1756 -1742 -1676 -1675 -1674 -1673 -1670 -1669 -1668 -1667 -352 1434 1435 -1430 -1424 1014 1015 1401 1394 1404 -410 -1011"/>
    </vehicle>
    <vehicle id="123" depart="30.48">
        <route edges="-1700 -1686 -859 -869 -868 -1753 -1752 1742 1756 1757 804 805 -641 -935 -934 157 -99 -96 -95 87 -83 -85"/>
    </vehicle>
    <vehicle id="124" depart="30.51">
        <route edges="909 -1748 -1747 -1738 -1757 -1756 -1742 -1676 -1675 -1674 -1673 -1670 -1669 -1668 -1667 -352 1434 1435 -1430 -1424 1014 1015 1401 1394 1404 -410 -1011"/>
    </vehicle>
    <vehicle id="125" depart="30.58">
        <route edges="517 523 -332 -1489 -1488 932 933 -1463 950 955 975 1441 1442 -1497 -1496 1377 -1378"/>
    </vehicle>
    <vehicle id="126" depart="31.49">
        <route edges="517 523 -332 -1489 -1488 932 933 -1463 950 955 975 1441 1442 -1497 -1496 1377 -1378"/>
    </vehicle>
    <vehicle id="127" depart="31.54">
        <route edges="803 -804 -1757 -1756 -1742 -1676 -1675 -1674 -1673 -1670 -1669 -1668 -1667 -352 -1437 -1495 -1494 1383 1384 -1499"/>
    </vehicle>
    <vehicle id="128" depart="31.63">
        <route edges="433 420 -435 441 445 655 670 677 1788 1789 1779 1780 1335 1331 1327 1325 1323 -1738 804 805 -641 -935 -934 157 -99 -96 -95 87 -83 -85 -84 -46 -45 -43"/>
    </vehicle>
    <vehicle id="129" depart="31.74">
        <route edges="-1785 693 1779 1780 1335 1331 1327 1325 1323 -1738 804 805 -641 1447 1448 -1453 328 1490 1492 1493"/>
    </vehicle>
    <vehicle id="130" depart="32.22">
        <route edges="1734 1735 781 785 -1723 -1722 -1719 -1718 -1713 -1712 -1717 -1716 -1709 -1708 -1705 -1704 -1741 -1740 -1757 -1756 -1742 -1676 -1675 -1674 -1673 -1670 -1669 -1668 -1667 -352 1434 1435 -1430 1005 1004 -1014 -1429"/>
    </vehicle>
    <vehicle id="131" depart="32.26">
        <route edges="-1680 874 854 -1674 -1673 -1670 -1669 -1668 -1667 -352 1434 1435 1432 1498 1499 1500 1501 1389 1391"/>
    </vehicle>
    <vehicle id="132" depart="32.27">
        <route edges="1744 -1754 -1748 -1747 -1738 804 805 -641 -935 -934 157 -99 -98 -149 -145 132 139 140 553 -547 539 540 541 547"/>
    </vehicle>
    <vehicle id="133" depart="32.61">
        <route edges="909 -1748 -1747 -1738 -1757 -1756 -1742 -1676 -1675 -1674 -1673 -1670 -1669 -1668 -1667 -352 1434 1435 -1430 -1424 1014 1015 1401 1394 1404 -410 -1011"/>
    </vehicle>
    <vehicle id="134" depart="32.68">
        <route edges="517 523 -332 -1489 -1488 932 933 -1463 950 955 975 1441 1442 -1497 -1496 1377 -1378"/>
    </vehicle>
    <vehicle id="135" depart="32.71">
        <route edges="-1414 -1413 1039 1050 1065 1064 1060 1073 1349"/>
    </vehicle>
    <vehicle id="136" depart="32.82">
        <route edges="-1414 -1413 1039 1050 1065 1064 1060 1073 1349"/>
    </vehicle>
    <vehicle id="137" depart="33.25">
        <route edges="1328 1327 1325 1323 -1738 -1757 -1756 -1742 -1676 -1675 -1674 -1673 -1670 -1669 -1668 -1667 -352 1434 1435 -1430 -1424 1014 1015 1011 410 -1404"/>
    </vehicle>
    <vehicle id="138" depart="33.26">
        <route edges="909 -1748 -1747 -1738 -1757 -1756 -1742 -1676 -1675 -1674 -1673 -1670 -1669 -1668 -1667 -352 1434 1435 -1430 -1424 1014 1015 1401 1394 1404 -410 -1011"/>
    </vehicle>
    <vehicle id="139" depart="33.27">
        <route edges="-1672 -1671 -821 -816 -352 -1444 -1443 -971 -328 1453 -1448 -1447 -935 -934 157 -99 -96 -95 87 -83 -85 -84 -46 -54 53"/>
    </vehicle>
    <vehicle id="140" depart="33.42">
        <route edges="-1656 -707 -1653 -1652 -1655 -1654 781 1730 1731 766 892 895 896 813 814 803 805 -641 1447 1448 -1453 328 1490 1492 1493 -949 947 1449"/>
    </vehicle>
    <vehicle id="141" depart="33.44">
        <route edges="-1414 -1413 1039 1050 1065 1064 1060 1073 1349"/>
    </vehicle>
    <vehicle id="142" depart="33.70">
        <route edges="-1756 -1742 -1676 -1675 1675 1676 1742 1756 1757 804 805 -641 -935 -934 157 -99 -98 -149 -145 132 139 140 553 -547"/>
    </vehicle>
    <vehicle id="143" depart="34.26">
        <route edges="-873 -879 -878 -821 -816 -352 1434 1435 1432 1498 1499 1500"/>
    </vehicle>
    <vehicle id="144" depart="34.27">
        <route edges="-1414 -1413 1039 1050 1065 1064 1060 1073 1349"/>
    </vehicle>
    <vehicle id="145" depart="34.34">
        <route edges="909 -1748 -1747 -1738 -1757 -1756 -1742 -1676 -1675 -1674 -1673 -1670 -1669 -1668 -1667 -352 1434 1435 -1430 -1424 1014 1015 1401 1394 1404 -410 -1011"/>
    </vehicle>
    <vehicle id="146" depart="34.39">
        <route edges="-1476 -1475 1473 1474 979 1378 1379 1373 1381 1386 1387 1391 1392 1012 1401 1402 1397 1398 1037 1050 1065 1074 1075 -354 1342 1343 1096 1112 1117 1114 1130 1577 -1563 -1564"/>
    </vehicle>
    <vehicle id="147" depart="34.64">
        <route edges="-909 911 1323 -1738 804 805 -641 -935 -934 157 -99"/>
    </vehicle>
    <vehicle id="148" depart="35.43">
        <route edges="803 -804 -1757 -1756 -1742 -1676 -1675 -1674 -1673 -1670 -1669 -1668 -1667 -352 -1437 -1495 -1494 1383 1384 -1499"/>
    </vehicle>
    <vehicle id="149" depart="35.46">
        <route edges="909 -1748 -1747 -1738 -1757 -1756 -1742 -1676 -1675 -1674 -1673 -1670 -1669 -1668 -1667 -352 1434 1435 -1430 -1424 1014 1015 1401 1394 1404 -410 -1011"/>
    </vehicle>
    <vehicle id="150" depart="35.51">
        <route edges="909 -1748 -1747 -1738 -1757 -1756 -1742 -1676 -1675 -1674 -1673 -1670 -1669 -1668 -1667 -352 1434 1435 -1430 -1424 1014 1015 1401 1394 1404 -410 -1011"/>
    </vehicle>
    <vehicle id="151" depart="36.07">
        <route edges="-1003 -1499 -1498 -1432 -1435 -1434 352 1667 1668 1669 1670 1673 1674 1675 1676 1742 1756 1744 -1754 -909 -908 -777 -776 -790 -789 725 1736 1737 1781 1782"/>
    </vehicle>
    <vehicle id="152" depart="36.54">
        <route edges="-1003 -1499 -1498 -1432 -1435 -1434 352 1667 1668 1669 1670 1673 1674 1675 1676 1742 1756 1744 -1754 -909 -908 -777 -776 -790 -789 725 1736 1737 1781 1782"/>
    </vehicle>
    <vehicle id="153" depart="36.56">
        <route edges="553 548 549 -140 136 137 141 145 149 98 99 156 934 935 641 382 738 -801 803"/>
    </vehicle>
    <vehicle id="154" depart="36.66">
        <route edges="517 523 -332 -1489 -1488 932 933 -1463 950 955 975 1441 1442 -1497 -1496 1377 -1378"/>
    </vehicle>
    <vehicle id="155" depart="36.81">
        <route edges="-1414 -1413 1039 1050 1065 1064 1060 1073 1349"/>
    </vehicle>
    <vehicle id="156" depart="36.86">
        <route edges="909 -1748 -1747 -1738 -1757 -1756 -1742 -1676 -1675 -1674 -1673 -1670 -1669 -1668 -1667 -352 1434 1435 -1430 -1424 1014 1015 1401 1394 1404 -410 -1011"/>
    </vehicle>
    <vehicle id="157" depart="37.00">
        <route edges="1328 1327 1325 1323 -1738 -1757 -1756 -1742 -1676 -1675 -1674 -1673 -1670 -1669 -1668 -1667 -352 1434 1435 -1430 -1424 1014 1015 1011 410 -1404"/>
    </vehicle>
    <vehicle id="158" depart="37.06">
        <route edges="1165 -1593 -1592 -1587 -1586 -1569 1572 1573 -1343 -1342 -1071 -1070 -1057 -1044 -1031 -1023 -410 -342 341 -986 -1503 1505 1519 -1517 -1510"/>
    </vehicle>