<?xml version='1.0' encoding='UTF-8'?>
<configuration xmlns:xsi="http://www.w3.org/2001/XMLSchema-instance" xsi:noNamespaceSchemaLocation="http://sumo.dlr.de/xsd/sumoConfiguration.xsd">

    <input>
        <net-file value="testsumo.net.xml" />
        <route-files value="testsumo.rou.xml" />
    </input>
    <vehicles>
        <vType id="car" maxSpeed="100"/>
    </vehicles>

</configuration>